@<TRIPOS>MOLECULE
UNL
 58 61 0 0 0
SMALL
GASTEIGER

@<TRIPOS>ATOM
      1  O          9.7320   11.2010    2.3390 O.2     1  UNL1        0.0000
      2  C         10.8100   11.4570    2.8730 C.2     1  UNL1        0.0000
      3  N         10.9590   11.7790    4.2010 N.am    1  UNL1        0.0000
      4  H         11.8710   11.9260    4.5440 H       1  UNL1        0.0000
      5  C         12.0460   11.4130    2.0200 C.ar    1  UNL1        0.0000
      6  C         12.9360   10.3350    1.9050 C.ar    1  UNL1        0.0000
      7 CL         12.8110    8.8660    2.8070 Cl      1  UNL1        0.0000
      8  C         14.0360   10.4220    1.0410 C.ar    1  UNL1        0.0000
      9  C         14.2640   11.5780    0.2970 C.ar    1  UNL1        0.0000
     10  F         15.3350   11.6010   -0.5100 F       1  UNL1        0.0000
     11  C         13.4120   12.6740    0.3990 C.ar    1  UNL1        0.0000
     12  C         12.3090   12.5810    1.2660 C.ar    1  UNL1        0.0000
     13  H         14.6840    9.6230    0.9550 H       1  UNL1        0.0000
     14  H         11.6730   13.3880    1.3550 H       1  UNL1        0.0000
     15  C         13.6240   13.9410   -0.3580 C.2     1  UNL1        0.0000
     16  N         14.7610   14.6680   -0.0880 N.am    1  UNL1        0.0000
     17  O         12.7900   14.2990   -1.1850 O.2     1  UNL1        0.0000
     18  H         15.3990   14.3230    0.5780 H       1  UNL1        0.0000
     19  C         15.0520   15.9210   -0.7500 C.3     1  UNL1        0.0000
     20  H         14.2430   16.1610   -1.4090 H       1  UNL1        0.0000
     21  H         15.9660   15.8080   -1.2940 H       1  UNL1        0.0000
     22  C         15.2270   17.0450    0.2390 C.ar    1  UNL1        0.0000
     23  C         16.4710   17.6740    0.4080 C.ar    1  UNL1        0.0000
     24  C         16.6180   18.7270    1.3170 C.ar    1  UNL1        0.0000
     25  C         15.5190   19.1540    2.0560 C.ar    1  UNL1        0.0000
     26  F         15.6660   20.1640    2.9260 F       1  UNL1        0.0000
     27  C         14.2850   18.5420    1.8940 C.ar    1  UNL1        0.0000
     28  F         13.2290   18.9560    2.6100 F       1  UNL1        0.0000
     29  C         14.1290   17.4940    0.9920 C.ar    1  UNL1        0.0000
     30  H         17.2840   17.3580   -0.1440 H       1  UNL1        0.0000
     31  H         17.5350   19.1830    1.4400 H       1  UNL1        0.0000
     32  H         13.2060   17.0480    0.8740 H       1  UNL1        0.0000
     33  C          9.8900   11.9100    5.0950 C.ar    1  UNL1        0.0000
     34  C          9.0690   13.0360    5.1820 C.ar    1  UNL1        0.0000
     35  C          8.0280   13.0070    6.1320 C.ar    1  UNL1        0.0000
     36  C          7.8060   11.8990    6.9510 C.ar    1  UNL1        0.0000
     37  C          8.6800   10.8340    6.7390 C.ar    1  UNL1        0.0000
     38  N          9.6780   10.7950    5.8200 N.ar    1  UNL1        0.0000
     39  H          7.4120   13.8290    6.2240 H       1  UNL1        0.0000
     40  H          8.5570   10.0000    7.3340 H       1  UNL1        0.0000
     41  N          6.7820   11.8380    7.8700 N.pl3   1  UNL1        0.0000
     42  C          6.4460   12.9510    8.7700 C.3     1  UNL1        0.0000
     43  C          6.6650   12.5460   10.2330 C.3     1  UNL1        0.0000
     44  O          5.9520   11.3400   10.5570 O.3     1  UNL1        0.0000
     45  C          6.3990   10.2580    9.7210 C.3     1  UNL1        0.0000
     46  C          6.1630   10.5530    8.2280 C.3     1  UNL1        0.0000
     47  H          5.4210   13.2190    8.6300 H       1  UNL1        0.0000
     48  H          7.0810   13.7800    8.5430 H       1  UNL1        0.0000
     49  H          6.3210   13.3350   10.8680 H       1  UNL1        0.0000
     50  H          7.7100   12.3690   10.3810 H       1  UNL1        0.0000
     51  H          5.8640    9.3710    9.9880 H       1  UNL1        0.0000
     52  H          7.4510   10.1330    9.8740 H       1  UNL1        0.0000
     53  H          6.5980    9.7730    7.6400 H       1  UNL1        0.0000
     54  H          5.1100   10.6020    8.0400 H       1  UNL1        0.0000
     55  C          9.1820   14.2470    4.3050 C.3     1  UNL1        0.0000
     56  H         10.2130   14.5040    4.1810 H       1  UNL1        0.0000
     57  H          8.6630   15.0660    4.7580 H       1  UNL1        0.0000
     58  H          8.7490   14.0370    3.3490 H       1  UNL1        0.0000
@<TRIPOS>BOND
     1     1     2    2
     2     2     5    1
     3     2     3   am
     4     3     4    1
     5     3    33    1
     6     5    12   ar
     7     5     6   ar
     8     6     8   ar
     9     6     7    1
    10     8     9   ar
    11     8    13    1
    12     9    10    1
    13     9    11   ar
    14    11    15    1
    15    11    12   ar
    16    12    14    1
    17    15    17    2
    18    15    16   am
    19    16    19    1
    20    16    18    1
    21    19    20    1
    22    19    21    1
    23    19    22    1
    24    22    23   ar
    25    22    29   ar
    26    23    30    1
    27    23    24   ar
    28    24    31    1
    29    24    25   ar
    30    25    27   ar
    31    25    26    1
    32    27    29   ar
    33    27    28    1
    34    29    32    1
    35    33    34   ar
    36    33    38   ar
    37    34    55    1
    38    34    35   ar
    39    35    39    1
    40    35    36   ar
    41    36    37   ar
    42    36    41    1
    43    37    38   ar
    44    37    40    1
    45    41    46    1
    46    41    42    1
    47    42    48    1
    48    42    47    1
    49    42    43    1
    50    43    50    1
    51    43    44    1
    52    43    49    1
    53    44    45    1
    54    45    46    1
    55    45    52    1
    56    45    51    1
    57    46    53    1
    58    46    54    1
    59    55    58    1
    60    55    56    1
    61    55    57    1
