@<TRIPOS>MOLECULE
UNL
 50 52 0 0 0
SMALL
GASTEIGER

@<TRIPOS>ATOM
      1  C          9.6920   12.4070    4.3670 C.ar    1  UNL1        0.0000
      2  C          9.3040   13.7330    4.5900 C.ar    1  UNL1        0.0000
      3 CL          9.7550   15.0610    3.5770 Cl      1  UNL1        0.0000
      4  C          8.5300   14.0690    5.7190 C.ar    1  UNL1        0.0000
      5  C          8.1470   13.1030    6.6550 C.ar    1  UNL1        0.0000
      6  F          7.3850   13.4920    7.6880 F       1  UNL1        0.0000
      7  C          8.5440   11.7840    6.5160 C.ar    1  UNL1        0.0000
      8  C          9.3180   11.4520    5.3660 C.ar    1  UNL1        0.0000
      9  H          8.2410   15.0500    5.8580 H       1  UNL1        0.0000
     10  H          9.6240   10.4740    5.2480 H       1  UNL1        0.0000
     11  O          9.8460   11.2130    2.3420 O.2     1  UNL1        0.0000
     12  C         10.4710   11.8850    3.1630 C.2     1  UNL1        0.0000
     13  N         11.8350   12.1450    3.0540 N.am    1  UNL1        0.0000
     14  H         12.2390   12.7190    3.7450 H       1  UNL1        0.0000
     15  C         12.7040   11.6530    2.0280 C.ar    1  UNL1        0.0000
     16  C         13.4110   10.4320    2.0530 C.ar    1  UNL1        0.0000
     17  C         14.2770   10.0870    0.9690 C.ar    1  UNL1        0.0000
     18  C         14.4320   10.9300   -0.1280 C.ar    1  UNL1        0.0000
     19  C         13.6730   12.1030   -0.1700 C.ar    1  UNL1        0.0000
     20  C         12.8100   12.4450    0.8750 C.ar    1  UNL1        0.0000
     21  H         14.7980    9.1970    1.0010 H       1  UNL1        0.0000
     22  H         13.7510   12.7280   -0.9880 H       1  UNL1        0.0000
     23  H         12.2380   13.3010    0.7970 H       1  UNL1        0.0000
     24  C         13.2530    9.4100    3.1470 C.3     1  UNL1        0.0000
     25  H         13.1670    9.9090    4.0900 H       1  UNL1        0.0000
     26  H         14.1080    8.7670    3.1610 H       1  UNL1        0.0000
     27  H         12.3730    8.8300    2.9700 H       1  UNL1        0.0000
     28  O         15.2140   10.7390   -1.2360 O.3     1  UNL1        0.0000
     29  C         16.4600   11.4030   -1.3020 C.3     1  UNL1        0.0000
     30  F         16.6740   12.0540   -0.1330 F       1  UNL1        0.0000
     31  F         17.4150   10.4340   -1.3800 F       1  UNL1        0.0000
     32  H         16.4820   12.0820   -2.1280 H       1  UNL1        0.0000
     33  C          8.1770   10.7120    7.5100 C.2     1  UNL1        0.0000
     34  N          6.9790   10.7840    8.2370 N.am    1  UNL1        0.0000
     35  O          8.9470    9.7630    7.6340 O.2     1  UNL1        0.0000
     36  H          6.4850   11.6330    8.3110 H       1  UNL1        0.0000
     37  C          6.4820    9.5690    8.8830 C.3     1  UNL1        0.0000
     38  H          6.5730    9.7180    9.9390 H       1  UNL1        0.0000
     39  H          7.0760    8.7940    8.4470 H       1  UNL1        0.0000
     40  C          5.0520    9.1090    8.6230 C.ar    1  UNL1        0.0000
     41  C          4.2260    9.9180    7.8070 C.ar    1  UNL1        0.0000
     42  C          3.0010    9.4560    7.3110 C.ar    1  UNL1        0.0000
     43  C          2.5810    8.1730    7.6230 C.ar    1  UNL1        0.0000
     44  F          1.4390    7.7050    7.1020 F       1  UNL1        0.0000
     45  C          3.3550    7.3620    8.4480 C.ar    1  UNL1        0.0000
     46  C          4.5870    7.8240    8.9450 C.ar    1  UNL1        0.0000
     47  H          4.5350   10.8740    7.5710 H       1  UNL1        0.0000
     48  H          2.4170   10.0650    6.7170 H       1  UNL1        0.0000
     49  H          3.0240    6.4160    8.6940 H       1  UNL1        0.0000
     50  H          5.1530    7.2130    9.5540 H       1  UNL1        0.0000
@<TRIPOS>BOND
     1     1    12    1
     2     1     2   ar
     3     1     8   ar
     4     2     3    1
     5     2     4   ar
     6     4     9    1
     7     4     5   ar
     8     5     7   ar
     9     5     6    1
    10     7     8   ar
    11     7    33    1
    12     8    10    1
    13    11    12    2
    14    12    13   am
    15    13    15    1
    16    13    14    1
    17    15    20   ar
    18    15    16   ar
    19    16    17   ar
    20    16    24    1
    21    17    18   ar
    22    17    21    1
    23    18    28    1
    24    18    19   ar
    25    19    22    1
    26    19    20   ar
    27    20    23    1
    28    24    27    1
    29    24    26    1
    30    24    25    1
    31    28    29    1
    32    29    32    1
    33    29    31    1
    34    29    30    1
    35    33    35    2
    36    33    34   am
    37    34    36    1
    38    34    37    1
    39    37    39    1
    40    37    40    1
    41    37    38    1
    42    40    41   ar
    43    40    46   ar
    44    41    42   ar
    45    41    47    1
    46    42    48    1
    47    42    43   ar
    48    43    44    1
    49    43    45   ar
    50    45    49    1
    51    45    46   ar
    52    46    50    1
