@<TRIPOS>MOLECULE
UNL
 53 55 0 0 0
SMALL
GASTEIGER

@<TRIPOS>ATOM
      1  C          8.3000   12.6210    6.3610 C.ar    1  UNL1        0.0000
      2  C          8.1740   13.9850    6.0670 C.ar    1  UNL1        0.0000
      3 CL          7.2120   15.0870    6.9870 Cl      1  UNL1        0.0000
      4  C          8.8300   14.5250    4.9520 C.ar    1  UNL1        0.0000
      5  C          9.6150   13.7140    4.1320 C.ar    1  UNL1        0.0000
      6  F         10.2230   14.2850    3.0810 F       1  UNL1        0.0000
      7  C          9.7710   12.3590    4.4040 C.ar    1  UNL1        0.0000
      8  C          9.1030   11.8200    5.5140 C.ar    1  UNL1        0.0000
      9  H          8.7320   15.5290    4.7350 H       1  UNL1        0.0000
     10  H          9.2010   10.8130    5.7200 H       1  UNL1        0.0000
     11  O          7.4500   12.5440    8.5180 O.2     1  UNL1        0.0000
     12  C          7.6270   11.9010    7.4870 C.2     1  UNL1        0.0000
     13  N          7.2580   10.5810    7.2920 N.am    1  UNL1        0.0000
     14  H          7.4990   10.1730    6.4290 H       1  UNL1        0.0000
     15  C          6.5650    9.7650    8.2180 C.ar    1  UNL1        0.0000
     16  C          7.2060    9.0580    9.2330 C.ar    1  UNL1        0.0000
     17  C          6.4870    8.2260   10.0980 C.ar    1  UNL1        0.0000
     18  C          5.0980    8.0820    9.9870 C.ar    1  UNL1        0.0000
     19  C          4.4540    8.8150    8.9720 C.ar    1  UNL1        0.0000
     20  C          5.1760    9.6590    8.1110 C.ar    1  UNL1        0.0000
     21  H          8.2270    9.1480    9.3490 H       1  UNL1        0.0000
     22  H          6.9900    7.7080   10.8340 H       1  UNL1        0.0000
     23  H          3.4310    8.7310    8.8590 H       1  UNL1        0.0000
     24  H          4.6750   10.2040    7.3910 H       1  UNL1        0.0000
     25  C          4.3180    7.1320   10.8940 C.3     1  UNL1        0.0000
     26  C          3.1750    6.3890   10.1840 C.3     1  UNL1        0.0000
     27  H          2.2780    6.4800   10.7620 H       1  UNL1        0.0000
     28  H          3.4300    5.3550   10.0830 H       1  UNL1        0.0000
     29  H          3.0200    6.8150    9.2160 H       1  UNL1        0.0000
     30  C          3.7590    7.8880   12.1030 C.3     1  UNL1        0.0000
     31  H          2.7990    7.4900   12.3610 H       1  UNL1        0.0000
     32  H          3.6600    8.9270   11.8610 H       1  UNL1        0.0000
     33  H          4.4250    7.7780   12.9330 H       1  UNL1        0.0000
     34  O          5.1980    6.1170   11.3950 O.3     1  UNL1        0.0000
     35  H          4.8160    5.7240   12.1950 H       1  UNL1        0.0000
     36  C         10.6670   11.4800    3.6020 C.2     1  UNL1        0.0000
     37  N         10.4130   11.3780    2.2540 N.am    1  UNL1        0.0000
     38  O         11.5930   10.8960    4.1600 O.2     1  UNL1        0.0000
     39  H          9.6270   11.8390    1.8810 H       1  UNL1        0.0000
     40  C         11.2620   10.6150    1.3620 C.3     1  UNL1        0.0000
     41  H         10.6620   10.2090    0.5750 H       1  UNL1        0.0000
     42  H         11.7260    9.8350    1.9290 H       1  UNL1        0.0000
     43  C         12.3460   11.4710    0.7600 C.ar    1  UNL1        0.0000
     44  C         12.2050   12.8690    0.7220 C.ar    1  UNL1        0.0000
     45  C         13.2310   13.6770    0.2260 C.ar    1  UNL1        0.0000
     46  C         14.4050   13.0890   -0.2290 C.ar    1  UNL1        0.0000
     47  F         15.3990   13.8680   -0.6780 F       1  UNL1        0.0000
     48  C         14.5510   11.7080   -0.2100 C.ar    1  UNL1        0.0000
     49  F         15.6850   11.1440   -0.6500 F       1  UNL1        0.0000
     50  C         13.5310   10.8940    0.2770 C.ar    1  UNL1        0.0000
     51  H         11.3330   13.3040    1.0650 H       1  UNL1        0.0000
     52  H         13.1180   14.7020    0.1980 H       1  UNL1        0.0000
     53  H         13.6470    9.8690    0.2830 H       1  UNL1        0.0000
@<TRIPOS>BOND
     1     1     8   ar
     2     1     2   ar
     3     1    12    1
     4     2     4   ar
     5     2     3    1
     6     4     5   ar
     7     4     9    1
     8     5     6    1
     9     5     7   ar
    10     7    36    1
    11     7     8   ar
    12     8    10    1
    13    11    12    2
    14    12    13   am
    15    13    14    1
    16    13    15    1
    17    15    20   ar
    18    15    16   ar
    19    16    21    1
    20    16    17   ar
    21    17    18   ar
    22    17    22    1
    23    18    19   ar
    24    18    25    1
    25    19    20   ar
    26    19    23    1
    27    20    24    1
    28    25    26    1
    29    25    34    1
    30    25    30    1
    31    26    29    1
    32    26    28    1
    33    26    27    1
    34    30    32    1
    35    30    31    1
    36    30    33    1
    37    34    35    1
    38    36    37   am
    39    36    38    2
    40    37    40    1
    41    37    39    1
    42    40    41    1
    43    40    43    1
    44    40    42    1
    45    43    50   ar
    46    43    44   ar
    47    44    45   ar
    48    44    51    1
    49    45    46   ar
    50    45    52    1
    51    46    47    1
    52    46    48   ar
    53    48    49    1
    54    48    50   ar
    55    50    53    1
