@<TRIPOS>MOLECULE
UNL
 74 78 0 0 0
SMALL
GASTEIGER

@<TRIPOS>ATOM
      1  C          7.8850   13.5090    0.6160 C.ar    1  UNL1        0.0000
      2  C          8.1530   13.1690   -0.7090 C.ar    1  UNL1        0.0000
      3  C          9.2960   12.4150   -0.9920 C.ar    1  UNL1        0.0000
      4  C         10.1900   12.0030   -0.0120 C.ar    1  UNL1        0.0000
      5  N         11.2380   11.2760   -0.4050 N.ar    1  UNL1        0.0000
      6  C         12.1070   10.8450    0.5360 C.ar    1  UNL1        0.0000
      7  C         12.0050   11.1420    1.8820 C.ar    1  UNL1        0.0000
      8  C         10.9510   11.9740    2.3030 C.ar    1  UNL1        0.0000
      9  C          9.9640   12.3710    1.3340 C.ar    1  UNL1        0.0000
     10  C          8.7870   13.1140    1.6180 C.ar    1  UNL1        0.0000
     11  H          9.4820   12.1530   -1.9730 H       1  UNL1        0.0000
     12  H         12.8990   10.2560    0.2300 H       1  UNL1        0.0000
     13  H          8.5880   13.3740    2.5970 H       1  UNL1        0.0000
     14  C          6.8920   15.6380    1.4910 C.2     1  UNL1        0.0000
     15  N          6.8360   14.3750    0.9600 N.am    1  UNL1        0.0000
     16  O          5.8490   16.2500    1.7110 O.2     1  UNL1        0.0000
     17  H          5.9300   14.0250    0.7970 H       1  UNL1        0.0000
     18  C          8.5390   16.3500    3.1800 C.2     1  UNL1        0.0000
     19  C          8.2120   16.1900    1.8850 C.2     1  UNL1        0.0000
     20  H          7.8730   16.0100    3.8910 H       1  UNL1        0.0000
     21  H          8.8900   16.4550    1.1540 H       1  UNL1        0.0000
     22  N          9.9950   18.3700    3.1760 N.4     1  UNL1        0.0000
     23  C          9.8120   16.9910    3.6600 C.3     1  UNL1        0.0000
     24  C         11.0700   16.2760    3.1520 C.3     1  UNL1        0.0000
     25  C         12.1090   17.3790    2.9580 C.3     1  UNL1        0.0000
     26  C         11.4140   18.6630    3.3820 C.3     1  UNL1        0.0000
     27  H          9.7260   18.4550    2.1960 H       1  UNL1        0.0000
     28  H          9.7060   16.9430    4.7230 H       1  UNL1        0.0000
     29  H         10.8710   15.7820    2.2240 H       1  UNL1        0.0000
     30  H         11.4060   15.5250    3.8350 H       1  UNL1        0.0000
     31  H         12.4080   17.4350    1.9330 H       1  UNL1        0.0000
     32  H         12.9930   17.1970    3.5310 H       1  UNL1        0.0000
     33  H         11.6140   18.8840    4.4090 H       1  UNL1        0.0000
     34  H         11.7480   19.5160    2.8300 H       1  UNL1        0.0000
     35  C          9.1440   19.3230    3.8830 C.3     1  UNL1        0.0000
     36  H          8.3060   18.8080    4.3040 H       1  UNL1        0.0000
     37  H          8.7970   20.0680    3.1980 H       1  UNL1        0.0000
     38  H          9.7050   19.7900    4.6650 H       1  UNL1        0.0000
     39  C         12.9320   10.4870    2.7550 C.1     1  UNL1        0.0000
     40  N         13.7090   10.0120    3.4780 N.1     1  UNL1        0.0000
     41  N         10.8480   12.4690    3.6300 N.pl3   1  UNL1        0.0000
     42  H         11.6450   12.9560    3.9390 H       1  UNL1        0.0000
     43  C          9.8180   12.3890    4.5860 C.ar    1  UNL1        0.0000
     44  C          9.1510   13.5070    5.0930 C.ar    1  UNL1        0.0000
     45  C          8.2200   13.3720    6.1290 C.ar    1  UNL1        0.0000
     46 CL          7.4610   14.8050    6.7300 Cl      1  UNL1        0.0000
     47  C          7.9170   12.1100    6.6580 C.ar    1  UNL1        0.0000
     48  C          8.5770   10.9910    6.1420 C.ar    1  UNL1        0.0000
     49  C          9.5070   11.1310    5.1100 C.ar    1  UNL1        0.0000
     50  H          9.3470   14.4410    4.6990 H       1  UNL1        0.0000
     51  H          8.3760   10.0550    6.5270 H       1  UNL1        0.0000
     52  H          9.9710   10.2920    4.7280 H       1  UNL1        0.0000
     53  O          6.9910   12.0520    7.6690 O.3     1  UNL1        0.0000
     54  C          6.4800   10.7520    7.9730 C.3     1  UNL1        0.0000
     55  H          7.0320   10.0230    7.4170 H       1  UNL1        0.0000
     56  H          5.4440   10.7280    7.7080 H       1  UNL1        0.0000
     57  C          6.6010   10.4420    9.4440 C.ar    1  UNL1        0.0000
     58  N          6.2990   11.4550   10.2980 N.ar    1  UNL1        0.0000
     59  C          6.3760   11.2020   11.6190 C.ar    1  UNL1        0.0000
     60  C          6.7280    9.9730   12.1450 C.ar    1  UNL1        0.0000
     61  C          7.0160    8.9380   11.2640 C.ar    1  UNL1        0.0000
     62  C          6.9490    9.1700    9.8930 C.ar    1  UNL1        0.0000
     63  H          6.1630   11.9700   12.2750 H       1  UNL1        0.0000
     64  H          6.7730    9.8270   13.1660 H       1  UNL1        0.0000
     65  H          7.2780    8.0060   11.6230 H       1  UNL1        0.0000
     66  H          7.1530    8.4120    9.2220 H       1  UNL1        0.0000
     67  O          7.4190   13.4840   -1.8210 O.3     1  UNL1        0.0000
     68  C          7.6590   14.7370   -2.4610 C.3     1  UNL1        0.0000
     69  H          7.9220   14.5760   -3.4860 H       1  UNL1        0.0000
     70  H          8.4630   15.2490   -1.9760 H       1  UNL1        0.0000
     71  C          6.3890   15.5670   -2.3840 C.3     1  UNL1        0.0000
     72  H          6.3480   16.0680   -1.4390 H       1  UNL1        0.0000
     73  H          5.5380   14.9270   -2.4860 H       1  UNL1        0.0000
     74  H          6.3890   16.2900   -3.1720 H       1  UNL1        0.0000
@<TRIPOS>BOND
     1     1     2   ar
     2     1    15    1
     3     1    10   ar
     4     2    67    1
     5     2     3   ar
     6     3    11    1
     7     3     4   ar
     8     4     5   ar
     9     4     9   ar
    10     5     6   ar
    11     6    12    1
    12     6     7   ar
    13     7     8   ar
    14     7    39    1
    15     8     9   ar
    16     8    41    1
    17     9    10   ar
    18    10    13    1
    19    14    15   am
    20    14    16    2
    21    14    19    1
    22    15    17    1
    23    18    19    2
    24    18    23    1
    25    18    20    1
    26    19    21    1
    27    22    27    1
    28    22    26    1
    29    22    23    1
    30    22    35    1
    31    23    24    1
    32    23    28    1
    33    24    29    1
    34    24    25    1
    35    24    30    1
    36    25    31    1
    37    25    26    1
    38    25    32    1
    39    26    34    1
    40    26    33    1
    41    35    37    1
    42    35    36    1
    43    35    38    1
    44    39    40    3
    45    41    42    1
    46    41    43    1
    47    43    44   ar
    48    43    49   ar
    49    44    50    1
    50    44    45   ar
    51    45    47   ar
    52    45    46    1
    53    47    48   ar
    54    47    53    1
    55    48    49   ar
    56    48    51    1
    57    49    52    1
    58    53    54    1
    59    54    55    1
    60    54    56    1
    61    54    57    1
    62    57    62   ar
    63    57    58   ar
    64    58    59   ar
    65    59    60   ar
    66    59    63    1
    67    60    61   ar
    68    60    64    1
    69    61    62   ar
    70    61    65    1
    71    62    66    1
    72    67    68    1
    73    68    69    1
    74    68    71    1
    75    68    70    1
    76    71    74    1
    77    71    73    1
    78    71    72    1
