@<TRIPOS>MOLECULE
UNL
 53 55 0 0 0
SMALL
GASTEIGER

@<TRIPOS>ATOM
      1  F          5.7060   14.6570    0.5730 F       1  UNL1        0.0000
      2  C          6.4590   14.1790    1.5750 C.ar    1  UNL1        0.0000
      3  C          6.1640   14.4670    2.8750 C.ar    1  UNL1        0.0000
      4  N          6.8740   13.9750    3.8990 N.ar    1  UNL1        0.0000
      5  C          7.9190   13.1730    3.6150 C.ar    1  UNL1        0.0000
      6  N          8.5980   12.5670    4.6770 N.pl3   1  UNL1        0.0000
      7  N          8.3270   12.9040    2.3670 N.ar    1  UNL1        0.0000
      8  C          7.5740   13.3880    1.3490 C.ar    1  UNL1        0.0000
      9  N          7.9020   13.1010    0.0060 N.pl3   1  UNL1        0.0000
     10  H          5.3640   15.0870    3.0780 H       1  UNL1        0.0000
     11  H          9.5540   12.3730    4.5490 H       1  UNL1        0.0000
     12  H          7.1420   13.1030   -0.6200 H       1  UNL1        0.0000
     13  C          8.0270   12.2120    5.9130 C.ar    1  UNL1        0.0000
     14  C          7.1530   11.1240    6.0370 C.ar    1  UNL1        0.0000
     15  C          6.4730   10.8640    7.2300 C.ar    1  UNL1        0.0000
     16  C          6.6660   11.6890    8.3340 C.ar    1  UNL1        0.0000
     17  C          7.5880   12.7350    8.2430 C.ar    1  UNL1        0.0000
     18  C          8.2780   12.9860    7.0480 C.ar    1  UNL1        0.0000
     19  H          7.0060   10.4990    5.2290 H       1  UNL1        0.0000
     20  H          5.8290   10.0590    7.2930 H       1  UNL1        0.0000
     21  H          7.7640   13.3310    9.0660 H       1  UNL1        0.0000
     22  H          8.9740   13.7470    7.0070 H       1  UNL1        0.0000
     23  O          6.0140   11.5790    9.5320 O.3     1  UNL1        0.0000
     24  C          6.2810   12.6020   10.4930 C.3     1  UNL1        0.0000
     25  H          6.8930   13.3610   10.0500 H       1  UNL1        0.0000
     26  H          6.7930   12.1830   11.3340 H       1  UNL1        0.0000
     27  C          4.9620   13.2150   10.9510 C.3     1  UNL1        0.0000
     28  H          4.4930   12.5660   11.6610 H       1  UNL1        0.0000
     29  H          4.3140   13.3450   10.1090 H       1  UNL1        0.0000
     30  O          5.2190   14.4820   11.5580 O.3     1  UNL1        0.0000
     31  C          4.6940   15.5510   10.7830 C.3     1  UNL1        0.0000
     32  H          3.8020   15.9210   11.2430 H       1  UNL1        0.0000
     33  H          4.4670   15.1990    9.7980 H       1  UNL1        0.0000
     34  H          5.4180   16.3370   10.7230 H       1  UNL1        0.0000
     35  C          9.1490   12.8120   -0.5690 C.ar    1  UNL1        0.0000
     36  C         10.0780   12.0590    0.1670 C.ar    1  UNL1        0.0000
     37  C         11.2840   11.6320   -0.3940 C.ar    1  UNL1        0.0000
     38  C         11.5830   12.0100   -1.7080 C.ar    1  UNL1        0.0000
     39  C         10.6740   12.7630   -2.4520 C.ar    1  UNL1        0.0000
     40  C          9.4590   13.1510   -1.8870 C.ar    1  UNL1        0.0000
     41  H          9.8630   11.8140    1.1470 H       1  UNL1        0.0000
     42  H         12.4820   11.7300   -2.1300 H       1  UNL1        0.0000
     43  H         10.9010   13.0340   -3.4220 H       1  UNL1        0.0000
     44  H          8.7830   13.6930   -2.4480 H       1  UNL1        0.0000
     45  N         12.2060   10.7930    0.2740 N.am    1  UNL1        0.0000
     46  C         12.7080   10.9660    1.5500 C.2     1  UNL1        0.0000
     47  O         12.5220   11.9200    2.2960 O.2     1  UNL1        0.0000
     48  H         12.5210   10.0020   -0.2210 H       1  UNL1        0.0000
     49  C         13.5390    9.8090    1.9940 C.2     1  UNL1        0.0000
     50  C         13.3710    9.2930    3.2180 C.2     1  UNL1        0.0000
     51  H         14.2430    9.4060    1.3550 H       1  UNL1        0.0000
     52  H         12.6670    9.6950    3.8570 H       1  UNL1        0.0000
     53  H         13.9460    8.4920    3.5230 H       1  UNL1        0.0000
@<TRIPOS>BOND
     1     1     2    1
     2     2     8   ar
     3     2     3   ar
     4     3    10    1
     5     3     4   ar
     6     4     5   ar
     7     5     7   ar
     8     5     6    1
     9     6    11    1
    10     6    13    1
    11     7     8   ar
    12     8     9    1
    13     9    12    1
    14     9    35    1
    15    13    14   ar
    16    13    18   ar
    17    14    19    1
    18    14    15   ar
    19    15    20    1
    20    15    16   ar
    21    16    17   ar
    22    16    23    1
    23    17    18   ar
    24    17    21    1
    25    18    22    1
    26    23    24    1
    27    24    25    1
    28    24    27    1
    29    24    26    1
    30    27    29    1
    31    27    30    1
    32    27    28    1
    33    30    31    1
    34    31    33    1
    35    31    34    1
    36    31    32    1
    37    35    40   ar
    38    35    36   ar
    39    36    37   ar
    40    36    41    1
    41    37    38   ar
    42    37    45    1
    43    38    39   ar
    44    38    42    1
    45    39    43    1
    46    39    40   ar
    47    40    44    1
    48    45    48    1
    49    45    46   am
    50    46    49    1
    51    46    47    2
    52    49    51    1
    53    49    50    2
    54    50    53    1
    55    50    52    1
