@<TRIPOS>MOLECULE
UNL
 64 67 0 0 0
SMALL
GASTEIGER

@<TRIPOS>ATOM
      1  C         10.3410   12.1750    3.8470 C.ar    1  UNL1        0.0000
      2  C          9.4930   13.3070    3.9330 C.ar    1  UNL1        0.0000
      3  C          8.7740   13.5800    5.1420 C.ar    1  UNL1        0.0000
      4  C          8.9390   12.6670    6.2010 C.ar    1  UNL1        0.0000
      5  C          9.6930   11.5110    6.0570 C.ar    1  UNL1        0.0000
      6  F          9.7770   10.6540    7.0840 F       1  UNL1        0.0000
      7  C         10.3880   11.2480    4.8890 C.ar    1  UNL1        0.0000
      8  H          8.4850   12.8620    7.1070 H       1  UNL1        0.0000
      9  H         10.9340   10.3770    4.7910 H       1  UNL1        0.0000
     10  C          7.9380   14.8050    5.3390 C.ar    1  UNL1        0.0000
     11  N          8.6460   15.8640    5.7940 N.ar    1  UNL1        0.0000
     12  C          7.9720   16.9800    6.0610 C.ar    1  UNL1        0.0000
     13  N          6.6510   17.1300    5.9720 N.ar    1  UNL1        0.0000
     14  C          5.9500   16.0710    5.5340 C.ar    1  UNL1        0.0000
     15  C          6.5390   14.8650    5.1400 C.ar    1  UNL1        0.0000
     16  H          8.5210   17.8010    6.3620 H       1  UNL1        0.0000
     17  N          4.5800   16.3320    5.5440 N.pl3   1  UNL1        0.0000
     18  H          4.1840   16.8560    6.2770 H       1  UNL1        0.0000
     19  H          4.0090   15.9900    4.8180 H       1  UNL1        0.0000
     20  O          5.9460   13.7460    4.6240 O.3     1  UNL1        0.0000
     21  C          4.8940   13.0870    5.3380 C.3     1  UNL1        0.0000
     22  H          4.2040   12.6630    4.6400 H       1  UNL1        0.0000
     23  H          4.3900   13.7970    5.9590 H       1  UNL1        0.0000
     24  C          5.4850   11.9700    6.2160 C.3     1  UNL1        0.0000
     25  H          6.4870   11.7810    5.8890 H       1  UNL1        0.0000
     26  H          4.8420   11.1220    6.1030 H       1  UNL1        0.0000
     27  N          5.5210   12.2780    7.6490 N.am    1  UNL1        0.0000
     28  C          6.2420   11.4450    8.5010 C.2     1  UNL1        0.0000
     29  O          6.8510   10.4550    8.1070 O.2     1  UNL1        0.0000
     30  C          6.2550   11.8270    9.9390 C.2     1  UNL1        0.0000
     31  C          6.2110   10.8940   10.8980 C.2     1  UNL1        0.0000
     32  H          6.2970   12.8250   10.1990 H       1  UNL1        0.0000
     33  H          6.1670    9.8950   10.6450 H       1  UNL1        0.0000
     34  H          6.2200   11.1750   11.8910 H       1  UNL1        0.0000
     35  C          4.8670   13.5060    8.0830 C.3     1  UNL1        0.0000
     36  H          3.8570   13.5150    7.7320 H       1  UNL1        0.0000
     37  H          5.3910   14.3490    7.6850 H       1  UNL1        0.0000
     38  H          4.8730   13.5540    9.1510 H       1  UNL1        0.0000
     39  C         11.0930   11.1890    1.6960 C.2     1  UNL1        0.0000
     40  N         11.2310   12.0560    2.7580 N.am    1  UNL1        0.0000
     41  O         10.0510   10.6020    1.4100 O.2     1  UNL1        0.0000
     42  H         12.0200   12.6440    2.7570 H       1  UNL1        0.0000
     43  F         11.2050   11.7060   -1.1530 F       1  UNL1        0.0000
     44  C         12.3200   11.3180   -0.5140 C.ar    1  UNL1        0.0000
     45  C         12.2920   10.9790    0.8370 C.ar    1  UNL1        0.0000
     46  C         13.4800   10.5430    1.4370 C.ar    1  UNL1        0.0000
     47  C         14.6780   10.5300    0.7110 C.ar    1  UNL1        0.0000
     48  C         14.7290   10.9530   -0.6270 C.ar    1  UNL1        0.0000
     49  C         13.5160   11.3100   -1.2350 C.ar    1  UNL1        0.0000
     50  H         13.4720   10.2300    2.4200 H       1  UNL1        0.0000
     51  H         15.5420   10.2000    1.1710 H       1  UNL1        0.0000
     52  H         13.5080   11.5720   -2.2340 H       1  UNL1        0.0000
     53  C         16.0420   11.1270   -1.3490 C.3     1  UNL1        0.0000
     54  C         17.3230   11.3360   -0.5810 C.3     1  UNL1        0.0000
     55  C         16.7440   12.4620   -1.3870 C.3     1  UNL1        0.0000
     56  H         15.7030   10.4310   -2.0880 H       1  UNL1        0.0000
     57  H         18.2240   10.8570   -0.9020 H       1  UNL1        0.0000
     58  H         17.6200   11.2120    0.4400 H       1  UNL1        0.0000
     59  H         16.3120   13.3070   -0.8920 H       1  UNL1        0.0000
     60  H         17.1090   13.1030   -2.1630 H       1  UNL1        0.0000
     61  C          9.2890   14.1700    2.7040 C.3     1  UNL1        0.0000
     62  H          9.6060   13.6330    1.8340 H       1  UNL1        0.0000
     63  H          9.8640   15.0670    2.7990 H       1  UNL1        0.0000
     64  H          8.2520   14.4190    2.6120 H       1  UNL1        0.0000
@<TRIPOS>BOND
     1     1    40    1
     2     1     2   ar
     3     1     7   ar
     4     2    61    1
     5     2     3   ar
     6     3    10    1
     7     3     4   ar
     8     4     5   ar
     9     4     8    1
    10     5     7   ar
    11     5     6    1
    12     7     9    1
    13    10    15   ar
    14    10    11   ar
    15    11    12   ar
    16    12    13   ar
    17    12    16    1
    18    13    14   ar
    19    14    15   ar
    20    14    17    1
    21    15    20    1
    22    17    19    1
    23    17    18    1
    24    20    21    1
    25    21    22    1
    26    21    23    1
    27    21    24    1
    28    24    25    1
    29    24    26    1
    30    24    27    1
    31    27    35    1
    32    27    28   am
    33    28    29    2
    34    28    30    1
    35    30    32    1
    36    30    31    2
    37    31    33    1
    38    31    34    1
    39    35    37    1
    40    35    36    1
    41    35    38    1
    42    39    45    1
    43    39    41    2
    44    39    40   am
    45    40    42    1
    46    43    44    1
    47    44    49   ar
    48    44    45   ar
    49    45    46   ar
    50    46    47   ar
    51    46    50    1
    52    47    48   ar
    53    47    51    1
    54    48    53    1
    55    48    49   ar
    56    49    52    1
    57    53    56    1
    58    53    55    1
    59    53    54    1
    60    54    55    1
    61    54    57    1
    62    54    58    1
    63    55    60    1
    64    55    59    1
    65    61    62    1
    66    61    64    1
    67    61    63    1
