@<TRIPOS>MOLECULE
UNL
 56 59 0 0 0
SMALL
GASTEIGER

@<TRIPOS>ATOM
      1  C         14.0140   12.1990   -0.1300 C.ar    1  UNL1        0.1633
      2  C         14.2950   11.1000    0.7070 C.ar    1  UNL1        0.0053
      3  C         13.5280   10.7780    1.8220 C.ar    1  UNL1        0.0425
      4  C         12.3460   11.4870    2.0370 C.ar    1  UNL1        0.0193
      5  C         11.6200   11.1440    3.1960 C.3     1  UNL1        0.1425
      6  N         10.3480   11.7340    3.3890 N.pl3   1  UNL1       -0.3168
      7  N         12.0820   10.2660    4.0970 N.2     1  UNL1       -0.2493
      8  C         13.2430    9.6690    3.7980 C.2     1  UNL1        0.0825
      9  N         13.9640    9.8510    2.6820 N.pl3   1  UNL1       -0.3053
     10  C         12.0190   12.5570    1.1710 C.ar    1  UNL1       -0.0077
     11  C         12.9000   12.9940    0.1660 C.ar    1  UNL1        0.1628
     12  H         15.1090   10.5070    0.4820 H       1  UNL1        0.0674
     13  H          9.8740   11.9750    2.5600 H       1  UNL1        0.1485
     14  H         13.6190    9.0050    4.4920 H       1  UNL1        0.0997
     15  H         11.1090   13.0300    1.2810 H       1  UNL1        0.0660
     16  C          9.6490   12.0340    4.5770 C.ar    1  UNL1        0.0661
     17  C          9.6120   11.1670    5.6730 C.ar    1  UNL1       -0.0365
     18  C          9.0740   11.5900    6.8950 C.ar    1  UNL1       -0.0400
     19  C          8.5630   12.8850    7.0380 C.ar    1  UNL1        0.0622
     20 CL          7.9690   13.3480    8.5940 Cl      1  UNL1       -0.0819
     21  C          8.5690   13.7580    5.9500 C.ar    1  UNL1        0.0962
     22 CL          7.9550   15.3710    6.0530 Cl      1  UNL1       -0.0790
     23  C          9.1170   13.3250    4.7400 C.ar    1  UNL1        0.1638
     24  F          9.1670   14.1630    3.6880 F       1  UNL1       -0.2020
     25  H          9.9830   10.2090    5.5810 H       1  UNL1        0.0637
     26  H          9.0550   10.9400    7.6970 H       1  UNL1        0.0633
     27  O         15.0760   12.5260   -0.9350 O.3     1  UNL1       -0.4914
     28  C         16.2640   11.7510   -0.8630 C.3     1  UNL1        0.0790
     29  H         16.6320   11.5690   -1.8510 H       1  UNL1        0.0660
     30  H         16.0520   10.8180   -0.3830 H       1  UNL1        0.0660
     31  H         17.0020   12.2820   -0.3000 H       1  UNL1        0.0660
     32  O         12.5560   14.2620   -0.2350 O.3     1  UNL1       -0.4850
     33  C         12.0200   14.4980   -1.5340 C.3     1  UNL1        0.1032
     34  C         11.3450   15.8660   -1.7000 C.3     1  UNL1        0.0001
     35  C          9.9470   15.9170   -1.1380 C.3     1  UNL1        0.0183
     36  N          9.1140   14.8930   -1.7330 N.am    1  UNL1       -0.2978
     37  C          7.8680   15.2790   -2.1990 C.2     1  UNL1        0.2389
     38  O          7.5390   16.4600   -2.3700 O.2     1  UNL1       -0.2706
     39  C          9.5990   13.5280   -1.5400 C.3     1  UNL1        0.0183
     40  C         11.0710   13.3480   -1.9170 C.3     1  UNL1        0.0001
     41  H         12.8500   14.5240   -2.2080 H       1  UNL1        0.0734
     42  H         11.3010   16.0970   -2.7440 H       1  UNL1        0.0316
     43  H         11.9310   16.5750   -1.1530 H       1  UNL1        0.0316
     44  H          9.5220   16.8780   -1.3440 H       1  UNL1        0.0466
     45  H          9.9960   15.7490   -0.0830 H       1  UNL1        0.0466
     46  H          9.0100   12.8690   -2.1430 H       1  UNL1        0.0466
     47  H          9.5100   13.3050   -0.4960 H       1  UNL1        0.0466
     48  H         11.4250   12.4590   -1.4390 H       1  UNL1        0.0316
     49  H         11.0870   13.3110   -2.9880 H       1  UNL1        0.0316
     50  C          6.8700   14.1930   -2.4290 C.2     1  UNL1       -0.0067
     51  C          5.6390   14.3100   -1.9250 C.2     1  UNL1       -0.0938
     52  H          7.1310   13.3570   -2.9740 H       1  UNL1        0.0663
     53  H          5.3810   15.1470   -1.3800 H       1  UNL1        0.0536
     54  H          4.9450   13.5620   -2.0810 H       1  UNL1        0.0536
     55 H          12.6251   11.0157    3.5397 H       1  UNL1        0.0805
     56 H          14.7775    9.3260    2.5038 H       1  UNL1        0.1530
@<TRIPOS>BOND
     1     1    27    1
     2     1    11   ar
     3     1     2   ar
     4     2    12    1
     5     2     3   ar
     6     3     4   ar
     7     3     9    1
     8     4    10   ar
     9     4     5    1
    10     5     6    1
    11     5     7    1
    12     5    55    1
    13     6    13    1
    14     6    16    1
    15     7     8    2
    16     8     9    1
    17     8    14    1
    18     9    56    1
    19    10    11   ar
    20    10    15    1
    21    11    32    1
    22    16    23   ar
    23    16    17   ar
    24    17    25    1
    25    17    18   ar
    26    18    19   ar
    27    18    26    1
    28    19    21   ar
    29    19    20    1
    30    21    23   ar
    31    21    22    1
    32    23    24    1
    33    27    28    1
    34    28    29    1
    35    28    30    1
    36    28    31    1
    37    32    33    1
    38    33    41    1
    39    33    40    1
    40    33    34    1
    41    34    42    1
    42    34    43    1
    43    34    35    1
    44    35    36    1
    45    35    44    1
    46    35    45    1
    47    36    37   am
    48    36    39    1
    49    37    50    1
    50    37    38    2
    51    39    46    1
    52    39    40    1
    53    39    47    1
    54    40    49    1
    55    40    48    1
    56    50    52    1
    57    50    51    2
    58    51    54    1
    59    51    53    1
