@<TRIPOS>MOLECULE
UNL
 59 62 0 0 0
SMALL
GASTEIGER

@<TRIPOS>ATOM
      1  C          6.9110   16.5950   -1.1860 C.ar    1  UNL1        0.0000
      2  N          5.9910   17.5500   -0.9820 N.ar    1  UNL1        0.0000
      3  C          5.9960   18.1270    0.2160 C.ar    1  UNL1        0.0000
      4  N          6.8470   17.8590    1.2070 N.ar    1  UNL1        0.0000
      5  C          7.7620   16.8930    0.9920 C.ar    1  UNL1        0.0000
      6  N          8.6620   16.6460    2.0400 N.pl3   1  UNL1        0.0000
      7  C          7.8450   16.1750   -0.2230 C.ar    1  UNL1        0.0000
      8  H          5.2770   18.8440    0.3950 H       1  UNL1        0.0000
      9  H          9.4920   16.1430    1.8750 H       1  UNL1        0.0000
     10  C          8.7710   15.0120   -0.4490 C.ar    1  UNL1        0.0000
     11  C          8.3590   13.6770   -0.3090 C.ar    1  UNL1        0.0000
     12  C          9.1830   12.6010   -0.6510 C.ar    1  UNL1        0.0000
     13  C         10.1080   15.2010   -0.8640 C.ar    1  UNL1        0.0000
     14  C         10.9710   14.1240   -1.1170 C.ar    1  UNL1        0.0000
     15  C         10.5110   12.8180   -1.0110 C.ar    1  UNL1        0.0000
     16  H          7.4140   13.4850    0.0580 H       1  UNL1        0.0000
     17  H          8.8060   11.6410   -0.6360 H       1  UNL1        0.0000
     18  H         10.4610   16.1630   -0.9860 H       1  UNL1        0.0000
     19  H         11.9520   14.3030   -1.3810 H       1  UNL1        0.0000
     20  O         11.4060   11.8170   -1.3180 O.3     1  UNL1        0.0000
     21  C         12.1770   11.2790   -0.3120 C.ar    1  UNL1        0.0000
     22  C         13.5510   11.2010   -0.5430 C.ar    1  UNL1        0.0000
     23  C         14.3890   10.6480    0.4270 C.ar    1  UNL1        0.0000
     24  C         13.8540   10.1760    1.6270 C.ar    1  UNL1        0.0000
     25  C         12.4860   10.2880    1.8730 C.ar    1  UNL1        0.0000
     26  C         11.6530   10.8670    0.9180 C.ar    1  UNL1        0.0000
     27  H         13.9470   11.5500   -1.4290 H       1  UNL1        0.0000
     28  H         15.4050   10.5880    0.2580 H       1  UNL1        0.0000
     29  H         14.4710    9.7430    2.3320 H       1  UNL1        0.0000
     30  H         12.0910    9.9420    2.7620 H       1  UNL1        0.0000
     31  H         10.6480   10.9920    1.1180 H       1  UNL1        0.0000
     32  N          6.8200   16.0270   -2.4610 N.pl3   1  UNL1        0.0000
     33  H          7.4630   16.2800   -3.1610 H       1  UNL1        0.0000
     34  H          6.1100   15.3730   -2.6590 H       1  UNL1        0.0000
     35  C          8.3540   17.1450    3.3760 C.3     1  UNL1        0.0000
     36  H          7.3150   16.9830    3.5740 H       1  UNL1        0.0000
     37  H          8.5940   18.1870    3.4040 H       1  UNL1        0.0000
     38  C          9.1870   16.4330    4.4650 C.3     1  UNL1        0.0000
     39  C          9.6170   15.0310    3.9720 C.3     1  UNL1        0.0000
     40  C          8.4900   14.0090    4.1070 C.3     1  UNL1        0.0000
     41  N          8.0700   13.9620    5.5010 N.am    1  UNL1        0.0000
     42  C          8.5140   13.0630    6.4660 C.2     1  UNL1        0.0000
     43  O          8.2240   13.1750    7.6580 O.2     1  UNL1        0.0000
     44  C          7.4600   15.2140    5.9480 C.3     1  UNL1        0.0000
     45  C          8.4790   16.3530    5.8400 C.3     1  UNL1        0.0000
     46  H         10.0570   17.0340    4.6290 H       1  UNL1        0.0000
     47  H         10.4530   14.7020    4.5520 H       1  UNL1        0.0000
     48  H          9.8720   15.1080    2.9360 H       1  UNL1        0.0000
     49  H          8.8400   13.0440    3.8020 H       1  UNL1        0.0000
     50  H          7.6650   14.2900    3.4860 H       1  UNL1        0.0000
     51  H          7.1470   15.1130    6.9660 H       1  UNL1        0.0000
     52  H          6.6140   15.4350    5.3320 H       1  UNL1        0.0000
     53  H          7.9690   17.2790    6.0100 H       1  UNL1        0.0000
     54  H          9.2370   16.1630    6.5700 H       1  UNL1        0.0000
     55  C          9.3880   11.9340    6.0270 C.2     1  UNL1        0.0000
     56  C          9.5670   10.8560    6.7990 C.2     1  UNL1        0.0000
     57  H          9.8630   11.9870    5.1130 H       1  UNL1        0.0000
     58  H          9.0970   10.7930    7.7160 H       1  UNL1        0.0000
     59  H         10.1760   10.0860    6.4770 H       1  UNL1        0.0000
@<TRIPOS>BOND
     1     1    32    1
     2     1     2   ar
     3     1     7   ar
     4     2     3   ar
     5     3     8    1
     6     3     4   ar
     7     4     5   ar
     8     5     7   ar
     9     5     6    1
    10     6     9    1
    11     6    35    1
    12     7    10    1
    13    10    13   ar
    14    10    11   ar
    15    11    12   ar
    16    11    16    1
    17    12    15   ar
    18    12    17    1
    19    13    14   ar
    20    13    18    1
    21    14    19    1
    22    14    15   ar
    23    15    20    1
    24    20    21    1
    25    21    22   ar
    26    21    26   ar
    27    22    27    1
    28    22    23   ar
    29    23    28    1
    30    23    24   ar
    31    24    25   ar
    32    24    29    1
    33    25    26   ar
    34    25    30    1
    35    26    31    1
    36    32    33    1
    37    32    34    1
    38    35    37    1
    39    35    36    1
    40    35    38    1
    41    38    39    1
    42    38    46    1
    43    38    45    1
    44    39    48    1
    45    39    40    1
    46    39    47    1
    47    40    50    1
    48    40    49    1
    49    40    41    1
    50    41    44    1
    51    41    42   am
    52    42    55    1
    53    42    43    2
    54    44    52    1
    55    44    45    1
    56    44    51    1
    57    45    53    1
    58    45    54    1
    59    55    57    1
    60    55    56    2
    61    56    59    1
    62    56    58    1
