@<TRIPOS>MOLECULE
UNL
 93 99 0 0 0
SMALL
GASTEIGER

@<TRIPOS>ATOM
      1  C          5.1360   13.9130    9.3760 C.3     1  UNL1        0.0704
      2  C          6.2450   14.6930   10.0910 C.3     1  UNL1       -0.0275
      3  C          7.4130   13.7930   10.5210 C.3     1  UNL1       -0.0352
      4  C          7.0150   12.4270   11.1300 C.3     1  UNL1        0.0151
      5  N          5.8440   11.8030   10.4920 N.am    1  UNL1       -0.2949
      6  C          5.9090   10.4710   10.0490 C.2     1  UNL1        0.2566
      7  O          6.8850    9.7710   10.3490 O.2     1  UNL1       -0.2692
      8  C          4.7420   12.7480   10.3020 C.3     1  UNL1        0.0375
      9  H          4.2650   14.5120    9.2110 H       1  UNL1        0.0561
     10  H          5.8310   15.1580   10.9610 H       1  UNL1        0.0287
     11  H          6.6290   15.4180    9.4040 H       1  UNL1        0.0287
     12  H          7.9870   14.3250   11.2520 H       1  UNL1        0.0281
     13  H          7.9540   13.5680    9.6250 H       1  UNL1        0.0281
     14  H          6.7980   12.5720   12.1680 H       1  UNL1        0.0465
     15  H          7.8420   11.7660   10.9710 H       1  UNL1        0.0465
     16  H          3.9110   12.2300    9.8720 H       1  UNL1        0.0485
     17  H          4.4890   13.1580   11.2580 H       1  UNL1        0.0485
     18  C          6.7640   12.8420    6.4190 C.ar    1  UNL1        0.1038
     19  N          6.7520   13.0800    7.7420 N.ar    1  UNL1       -0.1687
     20  N          5.5160   13.5430    8.0140 N.ar    1  UNL1       -0.2449
     21  C          4.7470   13.6710    6.8900 C.ar    1  UNL1        0.1293
     22  C          5.4790   13.1120    5.8490 C.ar    1  UNL1        0.0583
     23  C          4.8020   12.9780    4.6250 C.3     1  UNL1        0.1306
     24  N          5.2570   12.2710    3.5230 N.3     1  UNL1       -0.3056
     25  N          3.5800   13.5380    4.4980 N.2     1  UNL1       -0.2529
     26  C          3.0230   14.1260    5.5730 C.2     1  UNL1        0.0832
     27  N          3.5170   14.2090    6.8170 N.pl3   1  UNL1       -0.2906
     28  H          6.1390   11.8360    3.5470 H       1  UNL1        0.1205
     29  H          4.6960   12.2030    2.7170 H       1  UNL1        0.1205
     30  H          2.1010   14.5650    5.4210 H       1  UNL1        0.0997
     31  F          8.1030   10.3760    7.0440 F       1  UNL1       -0.2047
     32  C          8.6450   11.2020    6.1380 C.ar    1  UNL1        0.1361
     33  C          8.0200   12.4030    5.7970 C.ar    1  UNL1        0.0379
     34  C          8.5880   13.1510    4.7520 C.ar    1  UNL1       -0.0463
     35  C          9.7650   12.7320    4.1180 C.ar    1  UNL1       -0.0185
     36  C         10.4230   11.5820    4.5500 C.ar    1  UNL1        0.1312
     37  C          9.8410   10.8010    5.5440 C.ar    1  UNL1        0.0166
     38  H          8.1300   14.0220    4.4470 H       1  UNL1        0.0626
     39  H         10.1450   13.2770    3.3280 H       1  UNL1        0.0654
     40  H         10.2970    9.9240    5.8440 H       1  UNL1        0.0683
     41  O         11.5880   11.0820    4.0160 O.3     1  UNL1       -0.4559
     42  C         11.7750   11.0590    2.6550 C.ar    1  UNL1        0.1284
     43  C         10.7410   11.1310    1.7180 C.ar    1  UNL1       -0.0193
     44  C         11.0340   11.0920    0.3540 C.ar    1  UNL1       -0.0583
     45  C         12.3600   11.0370   -0.0750 C.ar    1  UNL1       -0.0615
     46  C         13.3960   11.0290    0.8590 C.ar    1  UNL1       -0.0583
     47  C         13.1030   11.0430    2.2220 C.ar    1  UNL1       -0.0193
     48  H          9.7620   11.2130    2.0350 H       1  UNL1        0.0654
     49  H         10.2680   11.1050   -0.3380 H       1  UNL1        0.0619
     50  H         12.5750   11.0000   -1.0830 H       1  UNL1        0.0618
     51  H         14.3780   11.0150    0.5410 H       1  UNL1        0.0619
     52  H         13.8690   11.0400    2.9130 H       1  UNL1        0.0654
     53  C          4.7990    9.8400    9.1980 C.2     1  UNL1        0.1083
     54  C          3.9020    9.0080    9.7760 C.2     1  UNL1       -0.0726
     55  H          4.0700    8.8190   10.7770 H       1  UNL1        0.0572
     56  C          4.8060    9.9390    7.7870 C.1     1  UNL1        0.1040
     57  N          4.8030    9.9880    6.6320 N.1     1  UNL1       -0.1907
     58  C          2.6700    8.2960    9.1840 C.3     1  UNL1       -0.0509
     59  N          1.8100    7.6700   10.2330 N.4     1  UNL1        0.3831
     60  C          1.8620    8.2770   11.5750 C.3     1  UNL1       -0.1049
     61  C          3.0150    7.7730   12.4700 C.3     1  UNL1       -0.1054
     62  N          3.2620    6.3160   12.4910 N.4     1  UNL1        0.3822
     63  C          3.0110    5.6570   11.1900 C.3     1  UNL1       -0.1054
     64  C          1.8310    6.2120   10.3730 C.3     1  UNL1       -0.1049
     65  H          0.9160    7.9040    9.7990 H       1  UNL1       -0.0808
     66  H          0.9380    8.0670   12.0720 H       1  UNL1        0.0041
     67  H          2.0330    9.3230   11.4260 H       1  UNL1        0.0041
     68  H          2.8010    8.0770   13.4730 H       1  UNL1        0.0041
     69  H          3.9010    8.1990   12.0480 H       1  UNL1        0.0041
     70  H          4.2550    6.2170   12.7040 H       1  UNL1       -0.0814
     71  H          2.8190    4.6220   11.3790 H       1  UNL1        0.0041
     72  H          3.8830    5.8380   10.5980 H       1  UNL1        0.0041
     73  H          1.8750    5.7850    9.3920 H       1  UNL1        0.0041
     74  H          0.9440    5.9490   10.9100 H       1  UNL1        0.0041
     75  C          2.4490    5.6530   13.5200 C.3     1  UNL1       -0.0304
     76  C          2.5540    6.3520   14.8860 C.3     1  UNL1        0.0377
     77  O          2.9560    5.1030   15.5180 O.3     1  UNL1       -0.3828
     78  C          3.3150    4.5780   14.2130 C.3     1  UNL1        0.0377
     79  H          1.5170    5.4880   13.0190 H       1  UNL1        0.0139
     80  H          1.6240    6.7400   15.2480 H       1  UNL1        0.0544
     81  H          3.1630    7.2240   14.9950 H       1  UNL1        0.0544
     82  H          4.3580    4.6510   13.9870 H       1  UNL1        0.0544
     83  H          3.1600    3.5430   13.9910 H       1  UNL1        0.0544
     84  C          1.6710    9.1780    8.3750 C.3     1  UNL1       -0.0715
     85  H          1.0460    9.7210    9.0530 H       1  UNL1        0.0219
     86  H          1.0650    8.5520    7.7550 H       1  UNL1        0.0219
     87  H          2.2160    9.8660    7.7640 H       1  UNL1        0.0219
     88  C          3.1780    7.2440    8.1730 C.3     1  UNL1       -0.0715
     89  H          2.7810    7.4600    7.2030 H       1  UNL1        0.0219
     90  H          2.8600    6.2700    8.4810 H       1  UNL1        0.0219
     91  H          4.2480    7.2740    8.1350 H       1  UNL1        0.0219
     92 H           5.8533   12.9774    4.8244 H       1  UNL1        0.0764
     93 H           3.0405   14.6119    7.5785 H       1  UNL1        0.1544
@<TRIPOS>BOND
     1     1    20    1
     2     1     9    1
     3     1     2    1
     4     1     8    1
     5     2    11    1
     6     2     3    1
     7     2    10    1
     8     3    13    1
     9     3     4    1
    10     3    12    1
    11     4     5    1
    12     4    15    1
    13     4    14    1
    14     5     6   am
    15     5     8    1
    16     6    53    1
    17     6     7    2
    18     8    16    1
    19     8    17    1
    20    18    33    1
    21    18    22   ar
    22    18    19   ar
    23    19    20   ar
    24    20    21   ar
    25    21    22   ar
    26    21    27    1
    27    22    23    1
    28    23    24    1
    29    23    25    1
    30    23    92    1
    31    24    29    1
    32    24    28    1
    33    25    26    2
    34    26    30    1
    35    26    27    1
    36    27    93    1
    37    31    32    1
    38    32    37   ar
    39    32    33   ar
    40    33    34   ar
    41    34    35   ar
    42    34    38    1
    43    35    39    1
    44    35    36   ar
    45    36    41    1
    46    36    37   ar
    47    37    40    1
    48    41    42    1
    49    42    43   ar
    50    42    47   ar
    51    43    44   ar
    52    43    48    1
    53    44    49    1
    54    44    45   ar
    55    45    50    1
    56    45    46   ar
    57    46    51    1
    58    46    47   ar
    59    47    52    1
    60    53    56    1
    61    53    54    2
    62    54    58    1
    63    54    55    1
    64    56    57    3
    65    58    88    1
    66    58    84    1
    67    58    59    1
    68    59    65    1
    69    59    64    1
    70    59    60    1
    71    60    67    1
    72    60    66    1
    73    60    61    1
    74    61    69    1
    75    61    62    1
    76    61    68    1
    77    62    63    1
    78    62    70    1
    79    62    75    1
    80    63    64    1
    81    63    72    1
    82    63    71    1
    83    64    73    1
    84    64    74    1
    85    75    79    1
    86    75    78    1
    87    75    76    1
    88    76    81    1
    89    76    80    1
    90    76    77    1
    91    77    78    1
    92    78    82    1
    93    78    83    1
    94    84    86    1
    95    84    87    1
    96    84    85    1
    97    88    89    1
    98    88    91    1
    99    88    90    1
