@<TRIPOS>MOLECULE
UNL
 62 66 0 0 0
SMALL
GASTEIGER

@<TRIPOS>ATOM
      1  N          7.5140   11.2340    4.7630 N.pl3   1  UNL1        0.0000
      2  C          7.8040   12.4200    4.0820 C.ar    1  UNL1        0.0000
      3  N          8.1690   13.4940    4.7880 N.ar    1  UNL1        0.0000
      4  C          8.5000   14.5870    4.0760 C.ar    1  UNL1        0.0000
      5  C          8.9390   15.8230    4.6360 C.ar    1  UNL1        0.0000
      6  C          9.2260   16.7580    3.6690 C.ar    1  UNL1        0.0000
      7  S          8.9620   16.1460    2.0920 S.2     1  UNL1        0.0000
      8  C          8.4600   14.6170    2.6920 C.ar    1  UNL1        0.0000
      9  C          8.0450   13.4690    2.0320 C.ar    1  UNL1        0.0000
     10  N          7.7440   12.3610    2.7450 N.ar    1  UNL1        0.0000
     11  H          7.6460   10.3950    4.2640 H       1  UNL1        0.0000
     12  H          9.0300   15.9960    5.6490 H       1  UNL1        0.0000
     13  H          9.5610   17.7130    3.8700 H       1  UNL1        0.0000
     14  C          6.1810   10.7700    8.7820 C.ar    1  UNL1        0.0000
     15  C          5.3320   11.2790    7.7920 C.ar    1  UNL1        0.0000
     16  C          5.7570   11.4430    6.4670 C.ar    1  UNL1        0.0000
     17  C          7.0560   11.1130    6.0840 C.ar    1  UNL1        0.0000
     18  C          7.9080   10.5830    7.0510 C.ar    1  UNL1        0.0000
     19  C          7.4810   10.4340    8.3760 C.ar    1  UNL1        0.0000
     20  H          4.3660   11.5390    8.0440 H       1  UNL1        0.0000
     21  H          5.0980   11.8140    5.7640 H       1  UNL1        0.0000
     22  H          8.8640   10.2970    6.7880 H       1  UNL1        0.0000
     23  H          8.1430   10.0630    9.0760 H       1  UNL1        0.0000
     24  N          5.0270   10.4560   12.8900 N.4     1  UNL1        0.0000
     25  C          4.3050   11.3020   11.9080 C.3     1  UNL1        0.0000
     26  C          4.3550   10.7260   10.4730 C.3     1  UNL1        0.0000
     27  C          6.4200   10.2500   12.4280 C.3     1  UNL1        0.0000
     28  C          6.5100    9.6680   10.9960 C.3     1  UNL1        0.0000
     29  N          5.7580   10.5320   10.0740 N.pl3   1  UNL1        0.0000
     30  H          4.5570    9.5530   12.9640 H       1  UNL1        0.0000
     31  H          4.7500   12.2750   11.9020 H       1  UNL1        0.0000
     32  H          3.2780   11.3370   12.2070 H       1  UNL1        0.0000
     33  H          3.8830   11.4090    9.7980 H       1  UNL1        0.0000
     34  H          3.8420    9.7880   10.4450 H       1  UNL1        0.0000
     35  H          6.9040    9.5740   13.1010 H       1  UNL1        0.0000
     36  H          6.8930   11.2100   12.4100 H       1  UNL1        0.0000
     37  H          6.0920    8.6830   10.9840 H       1  UNL1        0.0000
     38  H          7.5340    9.6220   10.6920 H       1  UNL1        0.0000
     39  C          5.0180   11.0830   14.2080 C.3     1  UNL1        0.0000
     40  H          4.0080   11.2780   14.5050 H       1  UNL1        0.0000
     41  H          5.5630   12.0040   14.1700 H       1  UNL1        0.0000
     42  H          5.4770   10.4270   14.9190 H       1  UNL1        0.0000
     43  O          8.0790   13.4030    0.6490 O.3     1  UNL1        0.0000
     44  C          9.2320   12.9670    0.0360 C.ar    1  UNL1        0.0000
     45  C         10.2000   12.1700    0.6570 C.ar    1  UNL1        0.0000
     46  C         11.2670   11.6480   -0.0800 C.ar    1  UNL1        0.0000
     47  C         11.3700   11.9600   -1.4430 C.ar    1  UNL1        0.0000
     48  C         10.4060   12.7550   -2.0650 C.ar    1  UNL1        0.0000
     49  C          9.3310   13.2460   -1.3280 C.ar    1  UNL1        0.0000
     50  H         10.1260   11.9650    1.6660 H       1  UNL1        0.0000
     51  H         12.1670   11.5990   -1.9920 H       1  UNL1        0.0000
     52  H         10.4890   12.9790   -3.0690 H       1  UNL1        0.0000
     53  H          8.6060   13.8170   -1.7910 H       1  UNL1        0.0000
     54  N         12.2350   10.7630    0.4520 N.am    1  UNL1        0.0000
     55  C         12.9970   10.9590    1.5860 C.2     1  UNL1        0.0000
     56  O         13.0680   11.9730    2.2630 O.2     1  UNL1        0.0000
     57  H         12.3780    9.9210   -0.0370 H       1  UNL1        0.0000
     58  C         13.7680    9.7380    1.9620 C.2     1  UNL1        0.0000
     59  C         13.3620    8.9810    2.9900 C.2     1  UNL1        0.0000
     60  H         14.6130    9.4770    1.4300 H       1  UNL1        0.0000
     61  H         12.5170    9.2430    3.5220 H       1  UNL1        0.0000
     62  H         13.8940    8.1360    3.2500 H       1  UNL1        0.0000
@<TRIPOS>BOND
     1     1     2    1
     2     1    11    1
     3     1    17    1
     4     2    10   ar
     5     2     3   ar
     6     3     4   ar
     7     4     8   ar
     8     4     5   ar
     9     5     6   ar
    10     5    12    1
    11     6     7   ar
    12     6    13    1
    13     7     8   ar
    14     8     9   ar
    15     9    43    1
    16     9    10   ar
    17    14    15   ar
    18    14    19   ar
    19    14    29    1
    20    15    16   ar
    21    15    20    1
    22    16    21    1
    23    16    17   ar
    24    17    18   ar
    25    18    22    1
    26    18    19   ar
    27    19    23    1
    28    24    25    1
    29    24    27    1
    30    24    30    1
    31    24    39    1
    32    25    26    1
    33    25    31    1
    34    25    32    1
    35    26    33    1
    36    26    29    1
    37    26    34    1
    38    27    28    1
    39    27    36    1
    40    27    35    1
    41    28    29    1
    42    28    38    1
    43    28    37    1
    44    39    41    1
    45    39    40    1
    46    39    42    1
    47    43    44    1
    48    44    49   ar
    49    44    45   ar
    50    45    46   ar
    51    45    50    1
    52    46    47   ar
    53    46    54    1
    54    47    48   ar
    55    47    51    1
    56    48    52    1
    57    48    49   ar
    58    49    53    1
    59    54    57    1
    60    54    55   am
    61    55    58    1
    62    55    56    2
    63    58    60    1
    64    58    59    2
    65    59    62    1
    66    59    61    1
