@<TRIPOS>MOLECULE
UNL
 44 46 0 0 0
SMALL
GASTEIGER

@<TRIPOS>ATOM
      1  N          8.6530   13.1580    5.9470 N.pl3   1  UNL1       -0.1443
      2  C          9.1450   12.0160    6.5480 C.3     1  UNL1        0.2301
      3  N          9.8190   11.2820    5.6970 N.2     1  UNL1       -0.0578
      4  C          9.7010   11.9840    4.5330 C.2     1  UNL1        0.3356
      5  N          8.8870   13.0430    4.6120 N.pl3   1  UNL1       -0.1334
      6  H          9.0000   11.7730    7.5400 H       1  UNL1        0.1042
      7  C         10.4210   11.5920    3.3260 C.ar    1  UNL1        0.0681
      8  C         11.5720   10.7940    3.4180 C.ar    1  UNL1       -0.0352
      9  C         12.2890   10.4200    2.2710 C.ar    1  UNL1        0.0561
     10  C         11.8380   10.8620    1.0160 C.ar    1  UNL1       -0.0384
     11  C         10.6870   11.6590    0.9000 C.ar    1  UNL1        0.0561
     12  C          9.9930   12.0230    2.0650 C.ar    1  UNL1       -0.0352
     13  H         11.8990   10.4780    4.3450 H       1  UNL1        0.0631
     14  H         12.3590   10.5970    0.1660 H       1  UNL1        0.0629
     15  H          9.1550   12.6190    1.9900 H       1  UNL1        0.0631
     16  C         13.5130    9.5420    2.3690 C.3     1  UNL1        0.4175
     17  F         13.2330    8.2140    2.4900 F       1  UNL1       -0.1659
     18  F         14.3150    9.6550    1.2730 F       1  UNL1       -0.1659
     19  F         14.2960    9.8570    3.4370 F       1  UNL1       -0.1659
     20  C         10.1700   12.1160   -0.4420 C.3     1  UNL1        0.4175
     21  F          8.8330   11.9160   -0.6040 F       1  UNL1       -0.1659
     22  F         10.3760   13.4460   -0.6490 F       1  UNL1       -0.1659
     23  F         10.7720   11.4760   -1.4810 F       1  UNL1       -0.1659
     24  C          6.6570   14.3550    6.8140 C.2     1  UNL1        0.0188
     25  C          7.9660   14.2250    6.5350 C.2     1  UNL1        0.0412
     26  H          6.3000   15.2930    7.0540 H       1  UNL1        0.0683
     27  H          8.5520   15.0340    6.7950 H       1  UNL1        0.0820
     28  O          5.0070   12.9630    5.8170 O.2     1  UNL1       -0.2693
     29  C          5.7010   13.2240    6.7950 C.2     1  UNL1        0.2542
     30  N          5.6680   12.4730    7.9400 N.am    1  UNL1       -0.2317
     31  H          6.1980   12.7130    8.7350 H       1  UNL1        0.1731
     32  N          4.8320   11.3400    7.9150 N.pl3   1  UNL1       -0.2470
     33  C          5.4030   10.2060    8.5390 C.ar    1  UNL1        0.1531
     34  N          6.7140   10.1940    8.8900 N.ar    1  UNL1       -0.2360
     35  C          7.1790    9.0250    9.3960 C.ar    1  UNL1        0.0478
     36  C          6.3860    7.8960    9.5400 C.ar    1  UNL1        0.0458
     37  N          5.0850    7.8840    9.1940 N.ar    1  UNL1       -0.2583
     38  C          4.6200    9.0540    8.6890 C.ar    1  UNL1        0.0687
     39  H          3.9370   11.3380    7.5040 H       1  UNL1        0.1716
     40  H          8.1680    8.9730    9.6880 H       1  UNL1        0.0846
     41  H          6.8090    7.0370    9.9260 H       1  UNL1        0.0845
     42  H          3.6310    9.0980    8.3970 H       1  UNL1        0.0865
     43 H           8.9985   11.7553    7.5754 H       1  UNL1        0.1042
     44 H           8.5410   13.6036    3.8804 H       1  UNL1        0.3231
@<TRIPOS>BOND
     1     1     5    1
     2     1    25    1
     3     1     2    1
     4     2     3    1
     5     2     6    1
     6     2    43    1
     7     3     4    2
     8     4     7    1
     9     4     5    1
    10     5    44    1
    11     7    12   ar
    12     7     8   ar
    13     8     9   ar
    14     8    13    1
    15     9    10   ar
    16     9    16    1
    17    10    14    1
    18    10    11   ar
    19    11    20    1
    20    11    12   ar
    21    12    15    1
    22    16    18    1
    23    16    17    1
    24    16    19    1
    25    20    23    1
    26    20    22    1
    27    20    21    1
    28    24    25    2
    29    24    29    1
    30    24    26    1
    31    25    27    1
    32    28    29    2
    33    29    30   am
    34    30    32    1
    35    30    31    1
    36    32    39    1
    37    32    33    1
    38    33    38   ar
    39    33    34   ar
    40    34    35   ar
    41    35    36   ar
    42    35    40    1
    43    36    37   ar
    44    36    41    1
    45    37    38   ar
    46    38    42    1
