@<TRIPOS>MOLECULE
UNL
 42 44 0 0 0
SMALL
GASTEIGER

@<TRIPOS>ATOM
      1  C         11.3090   12.2580    2.8420 C.2     1  UNL1        0.2392
      2  N         12.5850   12.1190    2.3270 N.am    1  UNL1       -0.2938
      3  C         13.1130   13.2830    1.5940 C.3     1  UNL1        0.0307
      4  C         13.3260   12.9930    0.0920 C.3     1  UNL1        0.0256
      5  C         14.2780   11.7960   -0.0220 C.3     1  UNL1       -0.0343
      6  C         13.7530   10.5870    0.7480 C.3     1  UNL1       -0.0331
      7  C         13.4460   10.9060    2.2290 C.3     1  UNL1        0.0236
      8  O         10.5590   13.1930    2.5530 O.2     1  UNL1       -0.2706
      9  H         14.0510   13.5630    2.0250 H       1  UNL1        0.0480
     10  H         12.3920   14.0690    1.6720 H       1  UNL1        0.0480
     11  H         13.7510   13.8440   -0.3980 H       1  UNL1        0.0476
     12  H         15.2330   12.0730    0.3750 H       1  UNL1        0.0281
     13  H         14.3570   11.5280   -1.0560 H       1  UNL1        0.0281
     14  H         14.4900    9.8120    0.7110 H       1  UNL1        0.0284
     15  H         12.8360   10.2850    0.2870 H       1  UNL1        0.0284
     16  H         14.2930   11.2070    2.8080 H       1  UNL1        0.0498
     17  N         12.0420   12.7100   -0.5620 N.3     1  UNL1       -0.2872
     18  C         11.3410   13.7980   -1.0790 C.3     1  UNL1        0.1312
     19  N         12.0100   14.9090   -1.4820 N.2     1  UNL1       -0.2528
     20  C         11.3160   15.9390   -2.0020 C.2     1  UNL1        0.0832
     21  N          9.9920   16.0490   -2.1720 N.pl3   1  UNL1       -0.2919
     22  C          9.3620   14.9380   -1.7560 C.ar    1  UNL1        0.1076
     23  C          9.9400   13.7990   -1.2200 C.ar    1  UNL1        0.0306
     24  C          8.8690   12.8980   -0.9430 C.ar    1  UNL1       -0.0360
     25  C          7.6900   13.5190   -1.3050 C.ar    1  UNL1        0.0037
     26  N          8.0080   14.7580   -1.7980 N.ar    1  UNL1       -0.3492
     27  H         11.6920   11.7920   -0.6320 H       1  UNL1        0.1245
     28  H         11.8780   16.7500   -2.3090 H       1  UNL1        0.0997
     29  H          8.9590   11.9510   -0.5450 H       1  UNL1        0.0637
     30  H          6.7410   13.1230   -1.2190 H       1  UNL1        0.0807
     31  H          7.3590   15.4190   -2.1320 H       1  UNL1        0.1665
     32  C         10.0190   11.6750    4.8210 C.2     1  UNL1       -0.0938
     33  C         10.8550   11.2830    3.8510 C.2     1  UNL1       -0.0067
     34  H          9.6970   10.9970    5.5300 H       1  UNL1        0.0536
     35  H          9.6960   12.6540    4.8600 H       1  UNL1        0.0536
     36  H         11.1800   10.3040    3.8090 H       1  UNL1        0.0663
     37  C         12.9770    9.6010    2.8770 C.3     1  UNL1       -0.0464
     38  H         12.7500    9.7760    3.9080 H       1  UNL1        0.0248
     39  H         13.7520    8.8670    2.8020 H       1  UNL1        0.0248
     40  H         12.1020    9.2480    2.3730 H       1  UNL1        0.0248
     41 H          11.3266   12.9132   -0.4775 H       1  UNL1        0.0766
     42 H           9.5412   16.8380   -2.5509 H       1  UNL1        0.1544
@<TRIPOS>BOND
     1     1     2   am
     2     1     8    2
     3     1    33    1
     4     2     3    1
     5     2     7    1
     6     3     4    1
     7     3    10    1
     8     3     9    1
     9     4    17    1
    10     4    11    1
    11     4     5    1
    12     5    13    1
    13     5    12    1
    14     5     6    1
    15     6    15    1
    16     6    14    1
    17     6     7    1
    18     7    16    1
    19     7    37    1
    20    17    18    1
    21    17    27    1
    22    18    19    1
    23    18    23    1
    24    18    41    1
    25    19    20    2
    26    20    28    1
    27    20    21    1
    28    21    22    1
    29    21    42    1
    30    22    26   ar
    31    22    23   ar
    32    23    24   ar
    33    24    25   ar
    34    24    29    1
    35    25    26   ar
    36    25    30    1
    37    26    31    1
    38    32    33    2
    39    32    35    1
    40    32    34    1
    41    33    36    1
    42    37    40    1
    43    37    39    1
    44    37    38    1
