@<TRIPOS>MOLECULE
UNL
 53 56 0 0 0
SMALL
GASTEIGER

@<TRIPOS>ATOM
      1  N          8.1940   12.7760    2.3530 N.ar    1  UNL1        0.0000
      2  C          6.8990   13.2260    2.2440 C.ar    1  UNL1        0.0000
      3  N          6.3430   13.8510    1.1920 N.ar    1  UNL1        0.0000
      4  C          5.0580   14.1630    1.4310 C.ar    1  UNL1        0.0000
      5  N          4.3350   13.9120    2.5420 N.ar    1  UNL1        0.0000
      6  C          4.9300   13.2690    3.5680 C.ar    1  UNL1        0.0000
      7  C          6.2740   12.9110    3.4380 C.ar    1  UNL1        0.0000
      8  C          7.2800   12.2730    4.1940 C.ar    1  UNL1        0.0000
      9  N          8.4450   12.1710    3.5430 N.ar    1  UNL1        0.0000
     10  H          4.5630   14.6560    0.6720 H       1  UNL1        0.0000
     11  O         13.8020   12.6570    0.8970 O.2     1  UNL1        0.0000
     12  C         12.8040   11.9490    1.0080 C.2     1  UNL1        0.0000
     13  N         11.5210   12.4380    0.9070 N.am    1  UNL1        0.0000
     14  C         11.2800   13.8320    0.6040 C.3     1  UNL1        0.0000
     15  C         10.0180   14.1680    1.3730 C.3     1  UNL1        0.0000
     16  C          9.2030   12.8680    1.3160 C.3     1  UNL1        0.0000
     17  C         10.2870   11.7750    1.3330 C.3     1  UNL1        0.0000
     18  H         11.1330   13.9730   -0.4470 H       1  UNL1        0.0000
     19  H         12.1040   14.4590    0.8750 H       1  UNL1        0.0000
     20  H          9.4870   14.9710    0.9050 H       1  UNL1        0.0000
     21  H         10.2140   14.4920    2.3740 H       1  UNL1        0.0000
     22  H          8.5880   12.7820    0.4440 H       1  UNL1        0.0000
     23  H         10.3990   11.3760    2.3190 H       1  UNL1        0.0000
     24  H         10.0340   10.9570    0.6900 H       1  UNL1        0.0000
     25  C         12.9270   10.4890    1.2480 C.2     1  UNL1        0.0000
     26  C         13.4920   10.0290    2.3720 C.2     1  UNL1        0.0000
     27  H         12.5760    9.8230    0.5420 H       1  UNL1        0.0000
     28  H         13.8450   10.6910    3.0800 H       1  UNL1        0.0000
     29  H         13.5740    9.0120    2.5300 H       1  UNL1        0.0000
     30  N          4.1500   13.0090    4.6840 N.pl3   1  UNL1        0.0000
     31  H          3.2400   12.6480    4.5760 H       1  UNL1        0.0000
     32  H          4.5050   13.1860    5.5850 H       1  UNL1        0.0000
     33  C          7.1760   11.7650    5.5230 C.1     1  UNL1        0.0000
     34  C          7.0230   11.3960    6.6590 C.1     1  UNL1        0.0000
     35  C          6.8010   10.9990    8.0180 C.ar    1  UNL1        0.0000
     36  C          6.4630   11.9570    8.9820 C.ar    1  UNL1        0.0000
     37  C          6.2560   11.5680   10.3080 C.ar    1  UNL1        0.0000
     38  C          6.3930   10.2210   10.6640 C.ar    1  UNL1        0.0000
     39  C          6.7350    9.2620    9.7100 C.ar    1  UNL1        0.0000
     40  C          6.9390    9.6580    8.3860 C.ar    1  UNL1        0.0000
     41  H          6.3660   12.9480    8.7130 H       1  UNL1        0.0000
     42  H          6.2390    9.9340   11.6440 H       1  UNL1        0.0000
     43  H          7.1940    8.9550    7.6750 H       1  UNL1        0.0000
     44  O          5.9180   12.3890   11.3490 O.3     1  UNL1        0.0000
     45  C          4.9420   13.3910   11.1000 C.3     1  UNL1        0.0000
     46  H          5.2540   14.3120   11.5460 H       1  UNL1        0.0000
     47  H          4.0060   13.0890   11.5210 H       1  UNL1        0.0000
     48  H          4.8310   13.5250   10.0440 H       1  UNL1        0.0000
     49  O          6.8990    7.9230    9.9470 O.3     1  UNL1        0.0000
     50  C          5.7280    7.1160    9.8980 C.3     1  UNL1        0.0000
     51  H          4.8610    7.7440    9.9100 H       1  UNL1        0.0000
     52  H          5.7080    6.4640   10.7460 H       1  UNL1        0.0000
     53  H          5.7330    6.5330    9.0000 H       1  UNL1        0.0000
@<TRIPOS>BOND
     1     1    16    1
     2     1     2   ar
     3     1     9   ar
     4     2     3   ar
     5     2     7   ar
     6     3     4   ar
     7     4    10    1
     8     4     5   ar
     9     5     6   ar
    10     6     7   ar
    11     6    30    1
    12     7     8   ar
    13     8     9   ar
    14     8    33    1
    15    11    12    2
    16    12    13   am
    17    12    25    1
    18    13    14    1
    19    13    17    1
    20    14    18    1
    21    14    19    1
    22    14    15    1
    23    15    20    1
    24    15    16    1
    25    15    21    1
    26    16    22    1
    27    16    17    1
    28    17    24    1
    29    17    23    1
    30    25    27    1
    31    25    26    2
    32    26    29    1
    33    26    28    1
    34    30    31    1
    35    30    32    1
    36    33    34    3
    37    34    35    1
    38    35    40   ar
    39    35    36   ar
    40    36    41    1
    41    36    37   ar
    42    37    38   ar
    43    37    44    1
    44    38    39   ar
    45    38    42    1
    46    39    40   ar
    47    39    49    1
    48    40    43    1
    49    44    45    1
    50    45    48    1
    51    45    47    1
    52    45    46    1
    53    49    50    1
    54    50    53    1
    55    50    51    1
    56    50    52    1
