@<TRIPOS>MOLECULE
UNL
 80 85 0 0 0
SMALL
GASTEIGER

@<TRIPOS>ATOM
      1  C          5.6700   11.0560   12.1920 C.1     1  UNL1        0.3092
      2  N          6.1490   11.9900   11.3580 N.2     1  UNL1       -0.1712
      3  C          5.9340   11.7790   10.0380 C.3     1  UNL1        0.1099
      4  C          5.2000   10.6840    9.5720 C.2     1  UNL1        0.0498
      5  C          5.1550   10.4210    8.0970 C.3     1  UNL1       -0.0059
      6  C          5.3500   11.6480    7.2450 C.3     1  UNL1        0.0163
      7  N          6.5290   12.3960    7.6420 N.pl3   1  UNL1       -0.3267
      8  C          6.4980   12.8240    9.0660 C.3     1  UNL1        0.0396
      9  C          4.6920    9.7920   10.5150 C.2     1  UNL1        0.3292
     10  N          4.9480    9.9850   11.8220 N.2     1  UNL1        0.0495
     11  N          3.9030    8.6970   10.2100 N.pl3   1  UNL1       -0.2165
     12  C          2.9600    8.6710    9.0920 C.3     1  UNL1        0.0964
     13  C          1.6810    7.9330    9.4770 C.3     1  UNL1        0.0516
     14  N          2.0060    6.5770    9.9190 N.am    1  UNL1       -0.2845
     15  C          2.8750    6.6040   11.1530 C.3     1  UNL1        0.0751
     16  C          4.1910    7.4080   10.8670 C.3     1  UNL1        0.1001
     17  C          1.7480    5.4390    9.1620 C.2     1  UNL1        0.2747
     18  O          1.9600    4.3040    9.5910 O.2     1  UNL1       -0.2675
     19  H          4.2010    9.9970    7.8600 H       1  UNL1        0.0328
     20  H          5.9680    9.7620    7.8780 H       1  UNL1        0.0328
     21  H          4.4910   12.2790    7.3430 H       1  UNL1        0.0467
     22  H          5.4800   11.3330    6.2310 H       1  UNL1        0.0467
     23  H          7.4980   13.0540    9.3680 H       1  UNL1        0.0488
     24  H          5.8400   13.6660    9.1140 H       1  UNL1        0.0488
     25  H          3.4160    8.1730    8.2610 H       1  UNL1        0.0742
     26  H          2.7100    9.6780    8.8300 H       1  UNL1        0.0742
     27  H          1.0290    7.8850    8.6300 H       1  UNL1        0.0502
     28  H          1.1970    8.4580   10.2740 H       1  UNL1        0.0502
     29  H          2.2700    7.1030   11.8810 H       1  UNL1        0.0548
     30  H          4.6950    7.5920   11.7920 H       1  UNL1        0.0745
     31  H          4.8060    6.8260   10.2100 H       1  UNL1        0.0745
     32  C          7.7040   12.2340    6.8920 C.ar    1  UNL1        0.0390
     33  C          8.5140   11.1100    7.1780 C.ar    1  UNL1       -0.0400
     34  C          9.6810   10.8320    6.4810 C.ar    1  UNL1       -0.0594
     35  C         10.0490   11.6400    5.4230 C.ar    1  UNL1       -0.0539
     36  C          9.2770   12.7430    5.0500 C.ar    1  UNL1       -0.0147
     37  C          8.1180   13.1340    5.7930 C.ar    1  UNL1        0.0214
     38  C          7.5590   14.3910    5.3290 C.ar    1  UNL1        0.0504
     39  C          7.9550   15.0190    4.1320 C.ar    1  UNL1       -0.0427
     40  C          9.0380   14.5440    3.4230 C.ar    1  UNL1       -0.0598
     41  C          9.7200   13.4450    3.9150 C.ar    1  UNL1       -0.0539
     42 CL          6.4710   15.3850    6.2620 Cl      1  UNL1       -0.0829
     43  H          8.2260   10.4720    7.9350 H       1  UNL1        0.0636
     44  H         10.2690   10.0290    6.7510 H       1  UNL1        0.0618
     45  H         10.9100   11.4230    4.8980 H       1  UNL1        0.0624
     46  H          7.4330   15.8390    3.7850 H       1  UNL1        0.0632
     47  H          9.3330   14.9980    2.5440 H       1  UNL1        0.0618
     48  H         10.5790   13.1320    3.4350 H       1  UNL1        0.0624
     49  C          1.1800    5.5850    7.7710 C.2     1  UNL1        0.1779
     50  C          0.3050    4.7250    7.2390 C.2     1  UNL1       -0.0581
     51  F          1.6520    6.5880    7.0010 F       1  UNL1       -0.2007
     52  H         -0.0700    3.9510    7.8090 H       1  UNL1        0.0565
     53  H          0.0050    4.8350    6.2580 H       1  UNL1        0.0565
     54  C          3.1700    5.2610   11.8500 C.3     1  UNL1        0.0569
     55  H          4.1960    5.0040   11.6820 H       1  UNL1        0.0437
     56  H          2.5120    4.5260   11.4390 H       1  UNL1        0.0437
     57  C          2.9280    5.3210   13.3120 C.1     1  UNL1        0.0645
     58  N          2.7220    5.3920   14.4440 N.1     1  UNL1       -0.1965
     59  O          5.9510   11.2470   13.5380 O.2     1  UNL1       -0.4169
     60  C          4.8780   10.7490   14.3500 C.3     1  UNL1        0.0928
     61  H          4.1210   10.3500   13.7090 H       1  UNL1        0.0692
     62  H          5.2850   10.0000   14.9970 H       1  UNL1        0.0692
     63  N          5.2610   12.6720   15.9180 N.4     1  UNL1        0.3819
     64  C          4.5670   13.8810   16.3540 C.3     1  UNL1       -0.0905
     65  C          3.6890   14.2140   15.1630 C.3     1  UNL1       -0.0694
     66  C          3.4340   12.8800   14.4590 C.3     1  UNL1       -0.0638
     67  C          4.2460   11.8400   15.2390 C.3     1  UNL1       -0.0424
     68  H          6.0200   12.8820   15.2680 H       1  UNL1       -0.0817
     69  H          5.2600   14.6710   16.5550 H       1  UNL1        0.0059
     70  H          4.0170   13.7480   17.2610 H       1  UNL1        0.0059
     71  H          4.1910   14.8940   14.5050 H       1  UNL1        0.0247
     72  H          2.7760   14.6880   15.4610 H       1  UNL1        0.0247
     73  H          3.7630   12.9250   13.4420 H       1  UNL1        0.0250
     74  H          2.3920   12.6350   14.4410 H       1  UNL1        0.0250
     75  H          3.6400   11.2680   15.9100 H       1  UNL1        0.0127
     76  C          5.9310   12.0040   17.0260 C.3     1  UNL1       -0.1027
     77  H          5.7120   10.9570   16.9940 H       1  UNL1        0.0024
     78  H          5.5840   12.4120   17.9510 H       1  UNL1        0.0024
     79  H          6.9870   12.1500   16.9450 H       1  UNL1        0.0024
     80 H           5.9072   10.7217    9.8756 H       1  UNL1        0.0619
@<TRIPOS>BOND
     1     1     2    2
     2     1    10    2
     3     1    59    1
     4     2     3    1
     5     3     8    1
     6     3     4    1
     7     3    80    1
     8     4     5    1
     9     4     9    2
    10     5     6    1
    11     5    19    1
    12     5    20    1
    13     6    22    1
    14     6    21    1
    15     6     7    1
    16     7    32    1
    17     7     8    1
    18     8    24    1
    19     8    23    1
    20     9    11    1
    21     9    10    1
    22    11    12    1
    23    11    16    1
    24    12    25    1
    25    12    26    1
    26    12    13    1
    27    13    27    1
    28    13    14    1
    29    13    28    1
    30    14    17   am
    31    14    15    1
    32    15    16    1
    33    15    54    1
    34    15    29    1
    35    16    31    1
    36    16    30    1
    37    17    49    1
    38    17    18    2
    39    32    37   ar
    40    32    33   ar
    41    33    34   ar
    42    33    43    1
    43    34    35   ar
    44    34    44    1
    45    35    45    1
    46    35    36   ar
    47    36    41   ar
    48    36    37   ar
    49    37    38   ar
    50    38    39   ar
    51    38    42    1
    52    39    40   ar
    53    39    46    1
    54    40    47    1
    55    40    41   ar
    56    41    48    1
    57    49    51    1
    58    49    50    2
    59    50    53    1
    60    50    52    1
    61    54    56    1
    62    54    55    1
    63    54    57    1
    64    57    58    3
    65    59    60    1
    66    60    61    1
    67    60    62    1
    68    60    67    1
    69    63    67    1
    70    63    68    1
    71    63    64    1
    72    63    76    1
    73    64    65    1
    74    64    69    1
    75    64    70    1
    76    65    66    1
    77    65    71    1
    78    65    72    1
    79    66    73    1
    80    66    74    1
    81    66    67    1
    82    67    75    1
    83    76    79    1
    84    76    77    1
    85    76    78    1
