@<TRIPOS>MOLECULE
UNL
 87 90 0 0 0
SMALL
GASTEIGER

@<TRIPOS>ATOM
      1  C          5.6200   14.2910    1.3450 C.ar    1  UNL1        0.1581
      2  C          6.8780   13.7060    1.1610 C.ar    1  UNL1        0.1355
      3  C          7.5320   13.2170    2.3070 C.ar    1  UNL1        0.0015
      4  C          7.0110   13.3190    3.5990 C.ar    1  UNL1        0.0582
      5  C          5.7910   13.9950    3.8080 C.ar    1  UNL1        0.0546
      6  C          5.1210   14.4660    2.6560 C.ar    1  UNL1        0.0062
      7  H          8.4480   12.7580    2.1860 H       1  UNL1        0.0671
      8  H          4.2240   14.9630    2.7800 H       1  UNL1        0.0674
      9  N          7.4580   13.4680   -0.1210 N.pl3   1  UNL1       -0.1983
     10  C          8.8130   13.1210   -0.2760 C.cat   1  UNL1        0.4181
     11  N          9.7590   13.8830    0.2760 N.2     1  UNL1       -0.1068
     12  C         11.0520   13.4410    0.3060 C.3     1  UNL1        0.1425
     13  C         11.3820   12.1990   -0.1880 C.3     1  UNL1        0.1441
     14  C         10.3480   11.5220   -0.8030 C.2     1  UNL1        0.1006
     15  N          9.0720   11.9630   -0.8890 N.2     1  UNL1       -0.0834
     16  H          6.8920   13.5500   -0.9220 H       1  UNL1        0.2516
     17  H         10.5650   10.6070   -1.2290 H       1  UNL1        0.0985
     18  C         12.0060   14.5420    0.6960 C.3     1  UNL1        0.0397
     19  C         11.3960   15.8110    0.7790 C.3     1  UNL1        0.0221
     20  N         11.4420   16.2010   -0.5610 N.pl3   1  UNL1       -0.3320
     21  C         12.7190   15.9070   -0.9900 C.ar    1  UNL1        0.0331
     22  C         13.1700   14.9370   -0.0760 C.ar    1  UNL1       -0.0184
     23  C         14.5150   14.5290   -0.1410 C.ar    1  UNL1       -0.0564
     24  C         15.3400   15.0590   -1.1380 C.ar    1  UNL1       -0.0614
     25  C         14.8320   15.9430   -2.0900 C.ar    1  UNL1       -0.0600
     26  C         13.5000   16.3740   -2.0490 C.ar    1  UNL1       -0.0404
     27  H         11.0190   16.3120    1.6000 H       1  UNL1        0.0471
     28  H         14.8870   13.8470    0.5380 H       1  UNL1        0.0621
     29  H         16.3370   14.7930   -1.1690 H       1  UNL1        0.0618
     30  H         15.4510   16.2880   -2.8400 H       1  UNL1        0.0618
     31  H         13.1140   17.0080   -2.7660 H       1  UNL1        0.0636
     32  C         10.2640   16.3760   -1.3790 C.3     1  UNL1        0.0007
     33  H          9.7700   17.2840   -1.1040 H       1  UNL1        0.0428
     34  H          9.6000   15.5490   -1.2310 H       1  UNL1        0.0428
     35  H         10.5500   16.4230   -2.4100 H       1  UNL1        0.0428
     36  C         12.6800   11.5260   -0.0310 C.2     1  UNL1        0.3207
     37  O         13.3800   11.1740   -0.9590 O.2     1  UNL1       -0.2499
     38  O         13.0090   11.4530    1.2910 O.3     1  UNL1       -0.4613
     39  C         12.3030   10.4510    2.0520 C.3     1  UNL1        0.0975
     40  H         11.6090    9.9370    1.4220 H       1  UNL1        0.0728
     41  C         11.5820   11.1630    3.1940 C.3     1  UNL1       -0.0280
     42  H         10.6420   10.6860    3.3750 H       1  UNL1        0.0265
     43  H         11.4170   12.1870    2.9280 H       1  UNL1        0.0265
     44  H         12.1830   11.1180    4.0780 H       1  UNL1        0.0265
     45  C         13.2740    9.4170    2.6210 C.3     1  UNL1       -0.0280
     46  H         14.2520    9.8460    2.6930 H       1  UNL1        0.0265
     47  H         13.3060    8.5630    1.9770 H       1  UNL1        0.0265
     48  H         12.9450    9.1160    3.5940 H       1  UNL1        0.0265
     49  N          7.6340   12.6730    4.6950 N.am    1  UNL1       -0.2804
     50  C          7.3350   11.4280    5.2090 C.2     1  UNL1        0.2406
     51  O          6.5620   10.5950    4.7480 O.2     1  UNL1       -0.2705
     52  H          8.3590   13.1680    5.1400 H       1  UNL1        0.1552
     53  C          8.0690   11.1410    6.4710 C.2     1  UNL1       -0.0066
     54  C          9.4050   11.2440    6.5050 C.2     1  UNL1       -0.0938
     55  H          7.5500   10.8630    7.3190 H       1  UNL1        0.0663
     56  H          9.9220   11.5230    5.6560 H       1  UNL1        0.0536
     57  H          9.9160   11.0470    7.3790 H       1  UNL1        0.0536
     58  N          5.2700   14.1640    5.1330 N.pl3   1  UNL1       -0.3332
     59  C          3.9440   13.5640    5.3410 C.3     1  UNL1        0.0006
     60  H          3.7430   12.8640    4.5580 H       1  UNL1        0.0428
     61  H          3.2000   14.3330    5.3340 H       1  UNL1        0.0428
     62  H          3.9260   13.0590    6.2840 H       1  UNL1        0.0428
     63  C          5.3910   15.5930    5.5770 C.3     1  UNL1       -0.0029
     64  H          4.5960   15.8050    6.2610 H       1  UNL1        0.0445
     65  H          5.3430   16.2030    4.6990 H       1  UNL1        0.0445
     66  C          6.7430   15.9060    6.2820 C.3     1  UNL1       -0.0752
     67  H          7.2810   14.9860    6.3860 H       1  UNL1        0.0074
     68  H          6.4890   16.3640    7.2150 H       1  UNL1        0.0074
     69  N          7.6190   16.8700    5.5810 N.4     1  UNL1        0.3770
     70  H          7.9010   17.5760    6.2620 H       1  UNL1       -0.0826
     71  C          6.8880   17.5020    4.4760 C.3     1  UNL1       -0.1035
     72  H          6.9050   16.8570    3.6230 H       1  UNL1        0.0023
     73  H          7.3500   18.4340    4.2290 H       1  UNL1        0.0023
     74  H          5.8730   17.6740    4.7730 H       1  UNL1        0.0023
     75  C          8.8330   16.2370    5.0640 C.3     1  UNL1       -0.1035
     76  H          8.5760   15.3270    4.5630 H       1  UNL1        0.0023
     77  H          9.4960   16.0210    5.8750 H       1  UNL1        0.0023
     78  H          9.3160   16.8990    4.3750 H       1  UNL1        0.0023
     79  O          4.7740   14.7910    0.3880 O.3     1  UNL1       -0.4918
     80  C          3.6370   14.0170    0.0330 C.3     1  UNL1        0.0789
     81  H          2.9350   14.6320   -0.4900 H       1  UNL1        0.0660
     82  H          3.1790   13.6280    0.9190 H       1  UNL1        0.0660
     83  H          3.9390   13.2070   -0.5970 H       1  UNL1        0.0660
     84 H          11.4314   12.6625    0.9344 H       1  UNL1        0.0748
     85 H          12.3492   12.6184   -0.3712 H       1  UNL1        0.0522
     86 H          12.3209   14.0134    1.5714 H       1  UNL1        0.0400
     87 H          11.0122   16.3282    1.6335 H       1  UNL1        0.0471
@<TRIPOS>BOND
     1     1    79    1
     2     1     2   ar
     3     1     6   ar
     4     2     9    1
     5     2     3   ar
     6     3     7    1
     7     3     4   ar
     8     4     5   ar
     9     4    49    1
    10     5     6   ar
    11     5    58    1
    12     6     8    1
    13     9    16    1
    14     9    10    1
    15    10    15    1
    16    10    11    2
    17    11    12    1
    18    12    13    1
    19    12    18    1
    20    12    84    1
    21    13    14    1
    22    13    36    1
    23    13    85    1
    24    14    17    1
    25    14    15    2
    26    18    22    1
    27    18    19    1
    28    18    86    1
    29    19    20    1
    30    19    27    1
    31    19    87    1
    32    20    32    1
    33    20    21    1
    34    21    26   ar
    35    21    22   ar
    36    22    23   ar
    37    23    24   ar
    38    23    28    1
    39    24    25   ar
    40    24    29    1
    41    25    30    1
    42    25    26   ar
    43    26    31    1
    44    32    35    1
    45    32    34    1
    46    32    33    1
    47    36    37    2
    48    36    38    1
    49    38    39    1
    50    39    40    1
    51    39    45    1
    52    39    41    1
    53    41    43    1
    54    41    42    1
    55    41    44    1
    56    45    47    1
    57    45    46    1
    58    45    48    1
    59    49    52    1
    60    49    50   am
    61    50    51    2
    62    50    53    1
    63    53    54    2
    64    53    55    1
    65    54    56    1
    66    54    57    1
    67    58    59    1
    68    58    63    1
    69    59    60    1
    70    59    61    1
    71    59    62    1
    72    63    65    1
    73    63    64    1
    74    63    66    1
    75    66    69    1
    76    66    67    1
    77    66    68    1
    78    69    71    1
    79    69    75    1
    80    69    70    1
    81    71    72    1
    82    71    73    1
    83    71    74    1
    84    75    78    1
    85    75    76    1
    86    75    77    1
    87    79    80    1
    88    80    83    1
    89    80    81    1
    90    80    82    1
