@<TRIPOS>MOLECULE
UNL
 76 80 0 0 0
SMALL
GASTEIGER

@<TRIPOS>ATOM
      1  N          9.0980   17.9330    5.6190 N.pl3   1  UNL1        0.0000
      2  C         10.2330   17.8950    4.8070 C.ar    1  UNL1        0.0000
      3  N         10.3880   16.9010    3.9190 N.ar    1  UNL1        0.0000
      4  C         11.5220   16.8650    3.1830 C.ar    1  UNL1        0.0000
      5  C         12.5030   17.8230    3.3020 C.ar    1  UNL1        0.0000
      6  C         12.2470   18.8140    4.2180 C.ar    1  UNL1        0.0000
      7  N         11.1350   18.8720    4.9770 N.ar    1  UNL1        0.0000
      8  H          8.8500   18.8140    5.9820 H       1  UNL1        0.0000
      9  H         13.3700   17.7990    2.7420 H       1  UNL1        0.0000
     10  H         12.9500   19.5600    4.3330 H       1  UNL1        0.0000
     11  C          7.1480   16.9900    6.8110 C.ar    1  UNL1        0.0000
     12  C          8.2660   16.8540    5.9780 C.ar    1  UNL1        0.0000
     13  C          8.4880   15.5940    5.3930 C.ar    1  UNL1        0.0000
     14  C          7.5710   14.5410    5.5090 C.ar    1  UNL1        0.0000
     15  C          6.4360   14.6540    6.3370 C.ar    1  UNL1        0.0000
     16  C          6.2700   15.9000    6.9770 C.ar    1  UNL1        0.0000
     17  H          9.3590   15.4400    4.8610 H       1  UNL1        0.0000
     18  H          5.4590   16.0210    7.6040 H       1  UNL1        0.0000
     19  N          5.5340   13.6350    6.5950 N.pl3   1  UNL1        0.0000
     20  C          5.9380   12.4860    7.4350 C.3     1  UNL1        0.0000
     21  C          5.7210   11.1610    6.6780 C.3     1  UNL1        0.0000
     22  O          4.3930   11.0350    6.1470 O.3     1  UNL1        0.0000
     23  C          4.1110   12.1310    5.2580 C.3     1  UNL1        0.0000
     24  C          4.1950   13.4620    6.0150 C.3     1  UNL1        0.0000
     25  H          5.3510   12.4820    8.3290 H       1  UNL1        0.0000
     26  H          6.9760   12.5820    7.6760 H       1  UNL1        0.0000
     27  H          5.8980   10.3480    7.3520 H       1  UNL1        0.0000
     28  H          6.4030   11.1450    5.8530 H       1  UNL1        0.0000
     29  H          3.1260   12.0140    4.8560 H       1  UNL1        0.0000
     30  H          4.8310   12.1320    4.4670 H       1  UNL1        0.0000
     31  H          3.9970   14.2660    5.3370 H       1  UNL1        0.0000
     32  H          3.4700   13.4610    6.8020 H       1  UNL1        0.0000
     33  N          7.6880   13.4750    4.6070 N.am    1  UNL1        0.0000
     34  C          8.6320   12.5220    4.4240 C.2     1  UNL1        0.0000
     35  O          8.5540   11.7970    3.4240 O.2     1  UNL1        0.0000
     36  H          6.9320   13.4060    3.9790 H       1  UNL1        0.0000
     37  C          9.6440   12.2890    5.4760 C.2     1  UNL1        0.0000
     38  C          9.3690   11.4400    6.4740 C.2     1  UNL1        0.0000
     39  H         10.5530   12.7770    5.4410 H       1  UNL1        0.0000
     40  H          8.4590   10.9550    6.5030 H       1  UNL1        0.0000
     41  H         10.0680   11.2690    7.2140 H       1  UNL1        0.0000
     42  O          6.6840   18.1340    7.4070 O.3     1  UNL1        0.0000
     43  C          5.2800   18.3230    7.4540 C.3     1  UNL1        0.0000
     44  H          4.8760   18.2380    6.4660 H       1  UNL1        0.0000
     45  H          5.0630   19.2950    7.8440 H       1  UNL1        0.0000
     46  H          4.8410   17.5790    8.0840 H       1  UNL1        0.0000
     47  N         11.6830   15.7950    2.2510 N.ar    1  UNL1        0.0000
     48  N         12.2480   14.6110    2.5850 N.ar    1  UNL1        0.0000
     49  C         12.3140   13.9030    1.4380 C.ar    1  UNL1        0.0000
     50  C         11.7420   14.6480    0.3500 C.ar    1  UNL1        0.0000
     51  C         11.3130   15.8250    0.9310 C.ar    1  UNL1        0.0000
     52  H         10.8050   16.5890    0.4570 H       1  UNL1        0.0000
     53  C         12.8940   12.5480    1.4430 C.ar    1  UNL1        0.0000
     54  C         12.5350   11.6290    2.4440 C.ar    1  UNL1        0.0000
     55  C         13.0400   10.3250    2.4410 C.ar    1  UNL1        0.0000
     56  C         13.9110    9.9140    1.4360 C.ar    1  UNL1        0.0000
     57  C         14.2910   10.8140    0.4460 C.ar    1  UNL1        0.0000
     58  C         13.7990   12.1230    0.4610 C.ar    1  UNL1        0.0000
     59  H         11.8880   11.9220    3.1930 H       1  UNL1        0.0000
     60  H         12.7660    9.6660    3.1860 H       1  UNL1        0.0000
     61  H         14.2710    8.9460    1.4240 H       1  UNL1        0.0000
     62  H         14.9390   10.5160   -0.3020 H       1  UNL1        0.0000
     63  H         14.1080   12.7890   -0.2650 H       1  UNL1        0.0000
     64  C         11.6110   14.3200   -1.1060 C.3     1  UNL1        0.0000
     65  H         12.5110   13.8420   -1.4320 H       1  UNL1        0.0000
     66  H         11.4410   15.2360   -1.6310 H       1  UNL1        0.0000
     67  N         10.4770   13.4310   -1.3830 N.4     1  UNL1        0.0000
     68  H         10.0100   13.2490   -0.4950 H       1  UNL1        0.0000
     69  C          9.4960   14.0450   -2.2800 C.3     1  UNL1        0.0000
     70  H          8.9850   13.2800   -2.8260 H       1  UNL1        0.0000
     71  H          9.9980   14.6980   -2.9640 H       1  UNL1        0.0000
     72  H          8.7890   14.6060   -1.7050 H       1  UNL1        0.0000
     73  C         10.9580   12.1730   -1.9600 C.3     1  UNL1        0.0000
     74  H         10.2910   11.3810   -1.6930 H       1  UNL1        0.0000
     75  H         11.9360   11.9590   -1.5830 H       1  UNL1        0.0000
     76  H         10.9980   12.2620   -3.0260 H       1  UNL1        0.0000
@<TRIPOS>BOND
     1     1     2    1
     2     1    12    1
     3     1     8    1
     4     2     3   ar
     5     2     7   ar
     6     3     4   ar
     7     4    47    1
     8     4     5   ar
     9     5     9    1
    10     5     6   ar
    11     6    10    1
    12     6     7   ar
    13    11    12   ar
    14    11    16   ar
    15    11    42    1
    16    12    13   ar
    17    13    17    1
    18    13    14   ar
    19    14    33    1
    20    14    15   ar
    21    15    19    1
    22    15    16   ar
    23    16    18    1
    24    19    24    1
    25    19    20    1
    26    20    21    1
    27    20    26    1
    28    20    25    1
    29    21    28    1
    30    21    22    1
    31    21    27    1
    32    22    23    1
    33    23    30    1
    34    23    29    1
    35    23    24    1
    36    24    31    1
    37    24    32    1
    38    33    36    1
    39    33    34   am
    40    34    35    2
    41    34    37    1
    42    37    39    1
    43    37    38    2
    44    38    40    1
    45    38    41    1
    46    42    43    1
    47    43    44    1
    48    43    45    1
    49    43    46    1
    50    47    51   ar
    51    47    48   ar
    52    48    49   ar
    53    49    50   ar
    54    49    53    1
    55    50    64    1
    56    50    51   ar
    57    51    52    1
    58    53    58   ar
    59    53    54   ar
    60    54    55   ar
    61    54    59    1
    62    55    56   ar
    63    55    60    1
    64    56    57   ar
    65    56    61    1
    66    57    62    1
    67    57    58   ar
    68    58    63    1
    69    64    66    1
    70    64    65    1
    71    64    67    1
    72    67    69    1
    73    67    73    1
    74    67    68    1
    75    69    71    1
    76    69    70    1
    77    69    72    1
    78    73    76    1
    79    73    74    1
    80    73    75    1
