@<TRIPOS>MOLECULE
UNL
 59 62 0 0 0
SMALL
GASTEIGER

@<TRIPOS>ATOM
      1  C          6.9080   13.4260    7.8110 C.ar    1  UNL1        0.0000
      2  C          6.3290   14.6940    7.7630 C.ar    1  UNL1        0.0000
      3  C          6.7980   15.6330    6.8370 C.ar    1  UNL1        0.0000
      4  C          7.8080   15.3300    5.9270 C.ar    1  UNL1        0.0000
      5  N          8.1910   16.2810    5.0740 N.ar    1  UNL1        0.0000
      6  C          9.1150   15.9380    4.1720 C.ar    1  UNL1        0.0000
      7  N          9.6560   14.7330    4.0280 N.ar    1  UNL1        0.0000
      8  C          9.2550   13.7670    4.8660 C.ar    1  UNL1        0.0000
      9  N          9.6680   12.4260    4.6200 N.pl3   1  UNL1        0.0000
     10  C          8.3520   14.0350    5.9200 C.ar    1  UNL1        0.0000
     11  C          7.9230   13.1070    6.9000 C.ar    1  UNL1        0.0000
     12  H          6.3830   16.5770    6.8270 H       1  UNL1        0.0000
     13  H          9.4390   16.6770    3.5280 H       1  UNL1        0.0000
     14  H          9.5020   11.7770    5.3410 H       1  UNL1        0.0000
     15  H          8.3680   12.1760    6.9430 H       1  UNL1        0.0000
     16  C         10.2890   11.9270    3.4520 C.ar    1  UNL1        0.0000
     17  C          9.7340   12.0940    2.1720 C.ar    1  UNL1        0.0000
     18  C         10.3920   11.6360    1.0300 C.ar    1  UNL1        0.0000
     19 CL          9.7170   11.9520   -0.5220 Cl      1  UNL1        0.0000
     20  C         11.5870   10.9410    1.1580 C.ar    1  UNL1        0.0000
     21  F         12.2500   10.5060    0.0760 F       1  UNL1        0.0000
     22  C         12.1130   10.6790    2.4210 C.ar    1  UNL1        0.0000
     23  C         11.4600   11.1610    3.5620 C.ar    1  UNL1        0.0000
     24  H          8.8220   12.5660    2.0730 H       1  UNL1        0.0000
     25  H         12.9830   10.1310    2.5150 H       1  UNL1        0.0000
     26  H         11.8440   10.9500    4.4960 H       1  UNL1        0.0000
     27  O          7.2610   13.2850   10.6380 O.2     1  UNL1        0.0000
     28  C          6.6830   12.4030   10.0170 C.2     1  UNL1        0.0000
     29  N          6.4170   12.4200    8.6660 N.am    1  UNL1        0.0000
     30  H          5.8610   11.7020    8.2830 H       1  UNL1        0.0000
     31  C          6.1730   11.1780   10.6850 C.2     1  UNL1        0.0000
     32  C          6.6280    9.9720   10.3080 C.2     1  UNL1        0.0000
     33  H          5.4710   11.2550   11.4370 H       1  UNL1        0.0000
     34  H          7.4420    9.9370    9.6750 H       1  UNL1        0.0000
     35  C          6.0260    8.6740   10.7540 C.3     1  UNL1        0.0000
     36  H          5.8930    8.7110   11.8150 H       1  UNL1        0.0000
     37  H          6.6990    7.8990   10.4530 H       1  UNL1        0.0000
     38  N          4.7290    8.3800   10.1330 N.4     1  UNL1        0.0000
     39  C          4.7950    8.4820    8.6660 C.3     1  UNL1        0.0000
     40  C          3.4510    8.1470    8.0140 C.3     1  UNL1        0.0000
     41  C          2.9690    6.7620    8.4240 C.3     1  UNL1        0.0000
     42  C          2.9440    6.6480    9.9420 C.3     1  UNL1        0.0000
     43  C          4.2950    7.0320   10.5450 C.3     1  UNL1        0.0000
     44  H          4.0480    9.0710   10.4480 H       1  UNL1        0.0000
     45  H          5.5360    7.8000    8.3040 H       1  UNL1        0.0000
     46  H          5.0470    9.4910    8.4120 H       1  UNL1        0.0000
     47  H          3.5630    8.1770    6.9500 H       1  UNL1        0.0000
     48  H          2.7290    8.8670    8.3390 H       1  UNL1        0.0000
     49  H          3.6320    6.0240    8.0240 H       1  UNL1        0.0000
     50  H          1.9810    6.6070    8.0430 H       1  UNL1        0.0000
     51  H          2.7150    5.6390   10.2120 H       1  UNL1        0.0000
     52  H          2.2000    7.3180   10.3200 H       1  UNL1        0.0000
     53  H          4.2140    7.0080   11.6130 H       1  UNL1        0.0000
     54  H          5.0220    6.3310   10.1930 H       1  UNL1        0.0000
     55  O          5.2880   15.1220    8.5480 O.3     1  UNL1        0.0000
     56  C          4.0030   15.1000    7.9280 C.3     1  UNL1        0.0000
     57  H          3.2480   14.9760    8.6760 H       1  UNL1        0.0000
     58  H          3.9550   14.2860    7.2350 H       1  UNL1        0.0000
     59  H          3.8420   16.0210    7.4070 H       1  UNL1        0.0000
@<TRIPOS>BOND
     1     1    11   ar
     2     1     2   ar
     3     1    29    1
     4     2     3   ar
     5     2    55    1
     6     3     4   ar
     7     3    12    1
     8     4     5   ar
     9     4    10   ar
    10     5     6   ar
    11     6    13    1
    12     6     7   ar
    13     7     8   ar
    14     8     9    1
    15     8    10   ar
    16     9    16    1
    17     9    14    1
    18    10    11   ar
    19    11    15    1
    20    16    17   ar
    21    16    23   ar
    22    17    18   ar
    23    17    24    1
    24    18    19    1
    25    18    20   ar
    26    20    21    1
    27    20    22   ar
    28    22    25    1
    29    22    23   ar
    30    23    26    1
    31    27    28    2
    32    28    29   am
    33    28    31    1
    34    29    30    1
    35    31    32    2
    36    31    33    1
    37    32    34    1
    38    32    35    1
    39    35    38    1
    40    35    37    1
    41    35    36    1
    42    38    39    1
    43    38    44    1
    44    38    43    1
    45    39    40    1
    46    39    45    1
    47    39    46    1
    48    40    47    1
    49    40    48    1
    50    40    41    1
    51    41    49    1
    52    41    50    1
    53    41    42    1
    54    42    51    1
    55    42    52    1
    56    42    43    1
    57    43    54    1
    58    43    53    1
    59    55    56    1
    60    56    58    1
    61    56    59    1
    62    56    57    1
