@<TRIPOS>MOLECULE
UNL
 64 68 0 0 0
SMALL
GASTEIGER

@<TRIPOS>ATOM
      1  C          8.0800   13.7840    5.8970 C.3     1  UNL1        0.0000
      2  C          7.2980   15.0660    6.2850 C.3     1  UNL1        0.0000
      3  C          8.1390   16.3310    6.1470 C.3     1  UNL1        0.0000
      4  N          8.6330   16.4190    4.7900 N.pl3   1  UNL1        0.0000
      5  C          9.1900   15.3220    4.2250 C.ar    1  UNL1        0.0000
      6  C         10.0060   15.1440    3.1240 C.ar    1  UNL1        0.0000
      7  C         10.2630   13.7320    3.0910 C.ar    1  UNL1        0.0000
      8  N          9.6200   13.1020    4.0950 N.ar    1  UNL1        0.0000
      9  N          8.9370   14.0700    4.7260 N.ar    1  UNL1        0.0000
     10  H          8.7070   13.4980    6.7150 H       1  UNL1        0.0000
     11  H          6.9780   14.9780    7.3020 H       1  UNL1        0.0000
     12  H          6.4690   15.1560    5.6140 H       1  UNL1        0.0000
     13  H          8.9630   16.2910    6.8290 H       1  UNL1        0.0000
     14  H          7.5410   17.1910    6.3720 H       1  UNL1        0.0000
     15  H          8.5670   17.2620    4.2870 H       1  UNL1        0.0000
     16  C          6.3030   10.2800    9.2700 C.2     1  UNL1        0.0000
     17  N          6.6350   10.9960    8.1230 N.am    1  UNL1        0.0000
     18  C          5.9270   12.2540    7.9100 C.3     1  UNL1        0.0000
     19  C          5.7840   12.5920    6.4280 C.3     1  UNL1        0.0000
     20  C          7.1200   12.5650    5.6510 C.3     1  UNL1        0.0000
     21  C          7.7720   11.1910    5.9310 C.3     1  UNL1        0.0000
     22  C          7.9110   10.8750    7.4190 C.3     1  UNL1        0.0000
     23  O          5.4290   10.6510   10.0600 O.2     1  UNL1        0.0000
     24  H          6.4700   13.0400    8.3910 H       1  UNL1        0.0000
     25  H          4.9440   12.1510    8.3190 H       1  UNL1        0.0000
     26  H          5.3650   13.5720    6.3440 H       1  UNL1        0.0000
     27  H          5.1570   11.8410    5.9960 H       1  UNL1        0.0000
     28  H          6.9100   12.6820    4.6080 H       1  UNL1        0.0000
     29  H          8.7480   11.1830    5.4910 H       1  UNL1        0.0000
     30  H          7.1310   10.4460    5.5090 H       1  UNL1        0.0000
     31  H          8.2730    9.8740    7.5270 H       1  UNL1        0.0000
     32  H          8.5940   11.5800    7.8460 H       1  UNL1        0.0000
     33  C          6.3530    7.8400    9.5640 C.2     1  UNL1        0.0000
     34  C          7.0240    9.0010    9.5200 C.2     1  UNL1        0.0000
     35  H          6.8600    6.9570    9.7390 H       1  UNL1        0.0000
     36  H          5.3310    7.8280    9.4230 H       1  UNL1        0.0000
     37  H          8.0460    9.0090    9.6610 H       1  UNL1        0.0000
     38  C         11.1400   12.9740    2.1880 C.ar    1  UNL1        0.0000
     39  C         10.9670   13.0420    0.7990 C.ar    1  UNL1        0.0000
     40  C         11.7690   12.2930   -0.0650 C.ar    1  UNL1        0.0000
     41  C         12.8280   11.5380    0.4350 C.ar    1  UNL1        0.0000
     42  C         13.0170   11.4640    1.8170 C.ar    1  UNL1        0.0000
     43  C         12.1800   12.1750    2.6880 C.ar    1  UNL1        0.0000
     44  H         10.2350   13.6560    0.4090 H       1  UNL1        0.0000
     45  H         11.5750   12.2990   -1.0790 H       1  UNL1        0.0000
     46  H         13.7800   10.8820    2.1990 H       1  UNL1        0.0000
     47  H         12.3290   12.1100    3.7070 H       1  UNL1        0.0000
     48  O         13.6910   10.8020   -0.3450 O.3     1  UNL1        0.0000
     49  C         14.9040   11.3390   -0.7210 C.ar    1  UNL1        0.0000
     50  C         15.2690   12.6740   -0.5170 C.ar    1  UNL1        0.0000
     51  C         16.5090   13.1380   -0.9580 C.ar    1  UNL1        0.0000
     52  C         17.4130   12.2580   -1.5490 C.ar    1  UNL1        0.0000
     53  C         17.0790   10.9110   -1.6940 C.ar    1  UNL1        0.0000
     54  C         15.8260   10.4540   -1.2840 C.ar    1  UNL1        0.0000
     55  H         14.6190   13.3170   -0.0390 H       1  UNL1        0.0000
     56  H         16.7550   14.1340   -0.8480 H       1  UNL1        0.0000
     57  H         18.3290   12.6010   -1.8770 H       1  UNL1        0.0000
     58  H         17.7590   10.2530   -2.1070 H       1  UNL1        0.0000
     59  H         15.5790    9.4570   -1.3960 H       1  UNL1        0.0000
     60  C         10.4850   16.1820    2.2300 C.2     1  UNL1        0.0000
     61  N          9.6530   16.4870    1.1870 N.am    1  UNL1        0.0000
     62  O         11.5260   16.8110    2.3840 O.2     1  UNL1        0.0000
     63  H          8.8160   15.9830    1.0610 H       1  UNL1        0.0000
     64  H          9.8920   17.2100    0.5620 H       1  UNL1        0.0000
@<TRIPOS>BOND
     1     1     9    1
     2     1    20    1
     3     1     2    1
     4     1    10    1
     5     2    12    1
     6     2     3    1
     7     2    11    1
     8     3     4    1
     9     3    14    1
    10     3    13    1
    11     4     5    1
    12     4    15    1
    13     5     6   ar
    14     5     9   ar
    15     6    60    1
    16     6     7   ar
    17     7    38    1
    18     7     8   ar
    19     8     9   ar
    20    16    17   am
    21    16    34    1
    22    16    23    2
    23    17    22    1
    24    17    18    1
    25    18    19    1
    26    18    25    1
    27    18    24    1
    28    19    20    1
    29    19    27    1
    30    19    26    1
    31    20    28    1
    32    20    21    1
    33    21    29    1
    34    21    30    1
    35    21    22    1
    36    22    31    1
    37    22    32    1
    38    33    36    1
    39    33    34    2
    40    33    35    1
    41    34    37    1
    42    38    39   ar
    43    38    43   ar
    44    39    40   ar
    45    39    44    1
    46    40    45    1
    47    40    41   ar
    48    41    48    1
    49    41    42   ar
    50    42    46    1
    51    42    43   ar
    52    43    47    1
    53    48    49    1
    54    49    54   ar
    55    49    50   ar
    56    50    51   ar
    57    50    55    1
    58    51    52   ar
    59    51    56    1
    60    52    57    1
    61    52    53   ar
    62    53    58    1
    63    53    54   ar
    64    54    59    1
    65    60    61   am
    66    60    62    2
    67    61    64    1
    68    61    63    1
