@<TRIPOS>MOLECULE
UNL
 70 73 0 0 0
SMALL
GASTEIGER

@<TRIPOS>ATOM
      1  C         11.4370   11.3080    1.8350 C.ar    1  UNL1        0.0000
      2  C         10.5950   12.3790    2.2070 C.ar    1  UNL1        0.0000
      3  C          9.7540   12.9850    1.2080 C.ar    1  UNL1        0.0000
      4  C          8.8020   14.0320    1.4120 C.ar    1  UNL1        0.0000
      5  C          8.0150   14.5730    0.3690 C.ar    1  UNL1        0.0000
      6  C          8.1170   14.0190   -0.9060 C.ar    1  UNL1        0.0000
      7  C          9.0410   12.9810   -1.1030 C.ar    1  UNL1        0.0000
      8  C          9.8350   12.4550   -0.0950 C.ar    1  UNL1        0.0000
      9  N         10.6300   11.4270   -0.4270 N.ar    1  UNL1        0.0000
     10  C         11.4030   10.8700    0.5280 C.ar    1  UNL1        0.0000
     11  H          8.6840   14.4110    2.3650 H       1  UNL1        0.0000
     12  H          9.1330   12.5860   -2.0530 H       1  UNL1        0.0000
     13  H         12.0020   10.0720    0.2660 H       1  UNL1        0.0000
     14  N          7.0090   15.4670    0.7650 N.am    1  UNL1        0.0000
     15  C          5.9780   15.3230    1.6470 C.2     1  UNL1        0.0000
     16  O          5.4330   16.3500    2.0540 O.2     1  UNL1        0.0000
     17  H          7.0550   16.3490    0.3320 H       1  UNL1        0.0000
     18  C          5.5220   13.9790    2.0880 C.2     1  UNL1        0.0000
     19  C          5.6360   13.6880    3.4000 C.2     1  UNL1        0.0000
     20  H          5.1340   13.2970    1.4180 H       1  UNL1        0.0000
     21  H          5.9860   14.4470    4.0050 H       1  UNL1        0.0000
     22  C          5.3160   12.3940    4.0850 C.3     1  UNL1        0.0000
     23  H          6.0980   12.1580    4.7760 H       1  UNL1        0.0000
     24  H          5.2300   11.6250    3.3460 H       1  UNL1        0.0000
     25  N          4.0440   12.4940    4.8120 N.4     1  UNL1        0.0000
     26  H          4.0700   11.8090    5.5660 H       1  UNL1        0.0000
     27  C          3.8840   13.8240    5.4040 C.3     1  UNL1        0.0000
     28  H          3.2490   13.7580    6.2630 H       1  UNL1        0.0000
     29  H          3.4440   14.4830    4.6860 H       1  UNL1        0.0000
     30  H          4.8420   14.2020    5.6960 H       1  UNL1        0.0000
     31  C          2.9040   12.1640    3.9590 C.3     1  UNL1        0.0000
     32  H          2.1510   12.9180    4.0630 H       1  UNL1        0.0000
     33  H          2.5030   11.2160    4.2500 H       1  UNL1        0.0000
     34  H          3.2230   12.1190    2.9390 H       1  UNL1        0.0000
     35  N         12.9970   10.1130    3.5270 N.1     1  UNL1        0.0000
     36  C         12.3080   10.6500    2.7560 C.1     1  UNL1        0.0000
     37  N         10.6290   12.8220    3.5660 N.pl3   1  UNL1        0.0000
     38  H         11.3980   13.3930    3.7970 H       1  UNL1        0.0000
     39  C          9.7300   12.5690    4.6280 C.ar    1  UNL1        0.0000
     40  C          8.9630   13.6420    5.1200 C.ar    1  UNL1        0.0000
     41  C          8.1430   13.5090    6.2510 C.ar    1  UNL1        0.0000
     42 CL          7.1510   14.8720    6.6350 Cl      1  UNL1        0.0000
     43  C          8.1220   12.3050    6.9580 C.ar    1  UNL1        0.0000
     44  C          8.8380   11.2200    6.4400 C.ar    1  UNL1        0.0000
     45  C          9.6200   11.3450    5.2830 C.ar    1  UNL1        0.0000
     46  H          9.0060   14.5510    4.6350 H       1  UNL1        0.0000
     47  H          8.7890   10.3070    6.9190 H       1  UNL1        0.0000
     48  H         10.1190   10.5220    4.9120 H       1  UNL1        0.0000
     49  O          7.4260   12.0110    8.1020 O.3     1  UNL1        0.0000
     50  C          6.0850   11.5330    7.9320 C.3     1  UNL1        0.0000
     51  H          5.8530   11.4990    6.8880 H       1  UNL1        0.0000
     52  H          5.4160   12.1970    8.4390 H       1  UNL1        0.0000
     53  C          5.9330   10.1460    8.5200 C.ar    1  UNL1        0.0000
     54  N          4.7660    9.4940    8.2720 N.ar    1  UNL1        0.0000
     55  C          4.6270    8.2470    8.7730 C.ar    1  UNL1        0.0000
     56  C          5.6040    7.6020    9.5110 C.ar    1  UNL1        0.0000
     57  C          6.7970    8.2730    9.7470 C.ar    1  UNL1        0.0000
     58  C          6.9690    9.5610    9.2450 C.ar    1  UNL1        0.0000
     59  H          3.7420    7.7470    8.5950 H       1  UNL1        0.0000
     60  H          5.4500    6.6490    9.8770 H       1  UNL1        0.0000
     61  H          7.5500    7.8220   10.2900 H       1  UNL1        0.0000
     62  H          7.8510   10.0740    9.4060 H       1  UNL1        0.0000
     63  O          7.4530   14.3250   -2.0590 O.3     1  UNL1        0.0000
     64  C          6.1160   13.8870   -2.2740 C.3     1  UNL1        0.0000
     65  H          5.8050   13.2590   -1.4660 H       1  UNL1        0.0000
     66  H          6.0470   13.3270   -3.1820 H       1  UNL1        0.0000
     67  C          5.2280   15.1240   -2.3420 C.3     1  UNL1        0.0000
     68  H          5.7790   15.9780   -2.0070 H       1  UNL1        0.0000
     69  H          4.3730   14.9840   -1.7140 H       1  UNL1        0.0000
     70  H          4.9080   15.2790   -3.3500 H       1  UNL1        0.0000
@<TRIPOS>BOND
     1     1    10   ar
     2     1     2   ar
     3     1    36    1
     4     2     3   ar
     5     2    37    1
     6     3     8   ar
     7     3     4   ar
     8     4     5   ar
     9     4    11    1
    10     5     6   ar
    11     5    14    1
    12     6    63    1
    13     6     7   ar
    14     7    12    1
    15     7     8   ar
    16     8     9   ar
    17     9    10   ar
    18    10    13    1
    19    14    17    1
    20    14    15   am
    21    15    16    2
    22    15    18    1
    23    18    20    1
    24    18    19    2
    25    19    21    1
    26    19    22    1
    27    22    24    1
    28    22    23    1
    29    22    25    1
    30    25    31    1
    31    25    27    1
    32    25    26    1
    33    27    29    1
    34    27    30    1
    35    27    28    1
    36    31    34    1
    37    31    32    1
    38    31    33    1
    39    35    36    3
    40    37    38    1
    41    37    39    1
    42    39    40   ar
    43    39    45   ar
    44    40    46    1
    45    40    41   ar
    46    41    42    1
    47    41    43   ar
    48    43    44   ar
    49    43    49    1
    50    44    45   ar
    51    44    47    1
    52    45    48    1
    53    49    50    1
    54    50    51    1
    55    50    52    1
    56    50    53    1
    57    53    54   ar
    58    53    58   ar
    59    54    55   ar
    60    55    59    1
    61    55    56   ar
    62    56    57   ar
    63    56    60    1
    64    57    58   ar
    65    57    61    1
    66    58    62    1
    67    63    64    1
    68    64    66    1
    69    64    67    1
    70    64    65    1
    71    67    70    1
    72    67    68    1
    73    67    69    1
