@<TRIPOS>MOLECULE
UNL
 69 71 0 0 0
SMALL
GASTEIGER

@<TRIPOS>ATOM
      1  C         11.8510   16.0080    0.9450 C.3     1  UNL1        0.0000
      2  H         12.0240   17.0280    0.6720 H       1  UNL1        0.0000
      3  C         11.1620   15.2170   -0.1950 C.2     1  UNL1        0.0000
      4  O         11.1790   15.6100   -1.3590 O.2     1  UNL1        0.0000
      5  N         10.5410   14.0470    0.1820 N.am    1  UNL1        0.0000
      6  H         10.5870   13.7830    1.1310 H       1  UNL1        0.0000
      7  C          9.8140   13.1660   -0.7480 C.3     1  UNL1        0.0000
      8  H         10.2320   13.3210   -1.7200 H       1  UNL1        0.0000
      9  C         10.0070   11.6560   -0.4800 C.3     1  UNL1        0.0000
     10  H          9.9250   11.1420   -1.4160 H       1  UNL1        0.0000
     11  H          9.2520   11.3830    0.2270 H       1  UNL1        0.0000
     12  C         11.3280   11.2730    0.1510 C.ar    1  UNL1        0.0000
     13  C         12.5110   11.3140   -0.6000 C.ar    1  UNL1        0.0000
     14  C         13.7190   10.8890   -0.0450 C.ar    1  UNL1        0.0000
     15  C         13.7630   10.4380    1.2720 C.ar    1  UNL1        0.0000
     16  C         12.6050   10.4400    2.0450 C.ar    1  UNL1        0.0000
     17  C         11.4030   10.8730    1.4900 C.ar    1  UNL1        0.0000
     18  H         12.4890   11.6610   -1.5720 H       1  UNL1        0.0000
     19  H         14.5810   10.9070   -0.6120 H       1  UNL1        0.0000
     20  H         14.6520   10.1030    1.6750 H       1  UNL1        0.0000
     21  H         12.6380   10.1220    3.0260 H       1  UNL1        0.0000
     22  H         10.5530   10.8990    2.0760 H       1  UNL1        0.0000
     23  C          8.3180   13.5540   -0.7390 C.2     1  UNL1        0.0000
     24  O          7.5620   13.2520   -1.6620 O.2     1  UNL1        0.0000
     25  C          7.8070   14.3080    0.4660 C.3     1  UNL1        0.0000
     26  C          7.1410   13.5140    1.5800 C.3     1  UNL1        0.0000
     27  O          8.4870   13.9720    1.7000 O.3     1  UNL1        0.0000
     28  H          6.9370   12.4710    1.4500 H       1  UNL1        0.0000
     29  H          6.2460   13.6110    2.1580 H       1  UNL1        0.0000
     30  C          7.5520   15.7870    0.3890 C.3     1  UNL1        0.0000
     31  H          6.6990   15.9700   -0.2310 H       1  UNL1        0.0000
     32  H          8.4080   16.2750   -0.0280 H       1  UNL1        0.0000
     33  H          7.3670   16.1690    1.3720 H       1  UNL1        0.0000
     34  C         10.2130   17.1050    2.4820 C.2     1  UNL1        0.0000
     35  O         10.2720   18.1820    1.8860 O.2     1  UNL1        0.0000
     36  N         10.9750   16.0180    2.1230 N.am    1  UNL1        0.0000
     37  H         10.9310   15.2080    2.6820 H       1  UNL1        0.0000
     38  C          9.2730   16.8970    3.6930 C.3     1  UNL1        0.0000
     39  H          8.2460   17.0260    3.4200 H       1  UNL1        0.0000
     40  C          8.5420   14.8070    4.8690 C.2     1  UNL1        0.0000
     41  O          7.4340   15.2770    5.1160 O.2     1  UNL1        0.0000
     42  N          9.4850   15.5320    4.1810 N.am    1  UNL1        0.0000
     43  H         10.3560   15.1090    4.0060 H       1  UNL1        0.0000
     44  C          9.3010   11.3270    6.3660 C.ar    1  UNL1        0.0000
     45  N          9.9220   11.3440    5.2040 N.ar    1  UNL1        0.0000
     46  C          9.7180   12.5670    4.5900 C.ar    1  UNL1        0.0000
     47  C          8.9440   13.4760    5.2830 C.ar    1  UNL1        0.0000
     48  S          8.4680   12.7720    6.7770 S.2     1  UNL1        0.0000
     49  H         10.1210   12.7860    3.6650 H       1  UNL1        0.0000
     50  C          9.2770   10.1640    7.2940 C.3     1  UNL1        0.0000
     51  H          8.2650    9.9410    7.5610 H       1  UNL1        0.0000
     52  H          9.8350   10.3990    8.1760 H       1  UNL1        0.0000
     53  H          9.7130    9.3140    6.8130 H       1  UNL1        0.0000
     54  C          9.5950   17.9350    4.7770 C.3     1  UNL1        0.0000
     55  H          8.8570   17.8810    5.5490 H       1  UNL1        0.0000
     56  H          9.5910   18.9110    4.3380 H       1  UNL1        0.0000
     57  O         10.8880   17.6770    5.3360 O.3     1  UNL1        0.0000
     58  C         11.7150   18.8350    5.2980 C.3     1  UNL1        0.0000
     59  H         11.1830   19.6660    5.7120 H       1  UNL1        0.0000
     60  H         11.9820   19.0500    4.2850 H       1  UNL1        0.0000
     61  H         12.6020   18.6580    5.8700 H       1  UNL1        0.0000
     62  C         13.2030   15.3450    1.2240 C.3     1  UNL1        0.0000
     63  H         13.1830   14.8960    2.1950 H       1  UNL1        0.0000
     64  H         13.9720   16.0870    1.1820 H       1  UNL1        0.0000
     65  O         13.4690   14.3370    0.2420 O.3     1  UNL1        0.0000
     66  C         14.6430   14.6450   -0.5000 C.3     1  UNL1        0.0000
     67  H         15.1560   15.4600   -0.0320 H       1  UNL1        0.0000
     68  H         14.3710   14.9210   -1.4980 H       1  UNL1        0.0000
     69  H         15.2830   13.7890   -0.5280 H       1  UNL1        0.0000
@<TRIPOS>BOND
     1     1     3    1
     2     1     2    1
     3     1    62    1
     4     1    36    1
     5     3     4    2
     6     3     5   am
     7     5     7    1
     8     5     6    1
     9     7     8    1
    10     7    23    1
    11     7     9    1
    12     9    10    1
    13     9    12    1
    14     9    11    1
    15    12    13   ar
    16    12    17   ar
    17    13    18    1
    18    13    14   ar
    19    14    19    1
    20    14    15   ar
    21    15    20    1
    22    15    16   ar
    23    16    17   ar
    24    16    21    1
    25    17    22    1
    26    23    24    2
    27    23    25    1
    28    25    30    1
    29    25    26    1
    30    25    27    1
    31    26    28    1
    32    26    27    1
    33    26    29    1
    34    30    31    1
    35    30    32    1
    36    30    33    1
    37    34    35    2
    38    34    36   am
    39    34    38    1
    40    36    37    1
    41    38    39    1
    42    38    42    1
    43    38    54    1
    44    40    42   am
    45    40    41    2
    46    40    47    1
    47    42    43    1
    48    44    45   ar
    49    44    48   ar
    50    44    50    1
    51    45    46   ar
    52    46    49    1
    53    46    47   ar
    54    47    48   ar
    55    50    53    1
    56    50    51    1
    57    50    52    1
    58    54    56    1
    59    54    57    1
    60    54    55    1
    61    57    58    1
    62    58    60    1
    63    58    59    1
    64    58    61    1
    65    62    65    1
    66    62    64    1
    67    62    63    1
    68    65    66    1
    69    66    68    1
    70    66    69    1
    71    66    67    1
