@<TRIPOS>MOLECULE
UNL
 62 65 0 0 0
SMALL
GASTEIGER

@<TRIPOS>ATOM
      1  N          8.5300   11.8790    4.2700 N.pl3   1  UNL1       -0.3190
      2  C          8.7850   13.2540    3.9930 C.3     1  UNL1        0.1424
      3  N          8.5880   14.1260    5.0060 N.2     1  UNL1       -0.2493
      4  C          8.8950   15.4020    4.7980 C.2     1  UNL1        0.0825
      5  N          9.4180   15.8880    3.6790 N.pl3   1  UNL1       -0.3053
      6  C          9.6080   15.0260    2.6830 C.ar    1  UNL1        0.0424
      7  C          9.2710   13.6610    2.7270 C.ar    1  UNL1        0.0176
      8  C          9.4630   12.8660    1.5420 C.ar    1  UNL1       -0.0284
      9  C         10.0580   13.4260    0.4050 C.ar    1  UNL1        0.0763
     10  C         10.4900   14.7670    0.4540 C.ar    1  UNL1        0.1439
     11  C         10.2220   15.5470    1.5660 C.ar    1  UNL1        0.0035
     12  H          8.7810   11.2100    3.5940 H       1  UNL1        0.1484
     13  H          8.7120   16.0670    5.5650 H       1  UNL1        0.0997
     14  H          9.1600   11.8790    1.5310 H       1  UNL1        0.0642
     15  H         10.4890   16.5430    1.5570 H       1  UNL1        0.0673
     16 CL          4.2390   10.9920    6.9900 Cl      1  UNL1       -0.0805
     17  C          5.9550   10.9800    6.8270 C.ar    1  UNL1        0.0778
     18  C          6.7560   10.4960    7.8590 C.ar    1  UNL1        0.1417
     19  F          6.2130   10.0320    8.9940 F       1  UNL1       -0.2040
     20  C          8.1370   10.4880    7.7280 C.ar    1  UNL1       -0.0233
     21  C          8.7170   10.9660    6.5500 C.ar    1  UNL1       -0.0380
     22  C          7.9290   11.4300    5.4810 C.ar    1  UNL1        0.0304
     23  C          6.5360   11.4550    5.6430 C.ar    1  UNL1       -0.0197
     24  H          8.7300   10.1330    8.4930 H       1  UNL1        0.0647
     25  H          9.7450   10.9770    6.4620 H       1  UNL1        0.0637
     26  H          5.9370   11.8220    4.8870 H       1  UNL1        0.0651
     27  N         10.3460   12.7590   -0.7950 N.am    1  UNL1       -0.2790
     28  C         11.3890   12.0690   -1.3250 C.2     1  UNL1        0.2408
     29  O         11.2400   11.6090   -2.4590 O.2     1  UNL1       -0.2705
     30  H          9.5880   12.8040   -1.4230 H       1  UNL1        0.1552
     31  C         12.6040   11.7540   -0.5410 C.2     1  UNL1       -0.0052
     32  C         12.4820   10.8900    0.4870 C.2     1  UNL1       -0.0958
     33  H         13.5140   12.1820   -0.7730 H       1  UNL1        0.0666
     34  H         11.5250   10.5520    0.6730 H       1  UNL1        0.0555
     35  C         13.5470   10.3510    1.3970 C.3     1  UNL1       -0.0718
     36  H         14.4620   10.8610    1.1800 H       1  UNL1        0.0101
     37  H         13.6000    9.2980    1.2120 H       1  UNL1        0.0101
     38  N         13.2640   10.5090    2.8270 N.4     1  UNL1        0.3783
     39  H         13.9100   11.2030    3.2020 H       1  UNL1       -0.0822
     40  C         11.8920   10.9810    3.0370 C.3     1  UNL1       -0.1032
     41  H         11.5530   10.6740    4.0040 H       1  UNL1        0.0023
     42  H         11.2520   10.5640    2.2870 H       1  UNL1        0.0023
     43  H         11.8690   12.0490    2.9730 H       1  UNL1        0.0023
     44  C         13.4610    9.2390    3.5290 C.3     1  UNL1       -0.1032
     45  H         14.3010    8.7270    3.1090 H       1  UNL1        0.0023
     46  H         12.5840    8.6330    3.4240 H       1  UNL1        0.0023
     47  H         13.6410    9.4290    4.5660 H       1  UNL1        0.0023
     48  O         11.1790   15.2180   -0.6490 O.3     1  UNL1       -0.4845
     49  C         12.4120   15.9090   -0.4370 C.3     1  UNL1        0.1255
     50  C         12.4050   17.2970   -1.0560 C.3     1  UNL1        0.0846
     51  O         13.7100   17.5430   -1.5790 O.3     1  UNL1       -0.3760
     52  C         14.3610   16.2900   -1.7920 C.3     1  UNL1        0.0512
     53  C         13.5200   15.1920   -1.1800 C.3     1  UNL1        0.0099
     54  H         12.5500   15.9530    0.6230 H       1  UNL1        0.0757
     55  H         12.1680   18.0270   -0.3100 H       1  UNL1        0.0597
     56  H         11.6720   17.3570   -1.8320 H       1  UNL1        0.0597
     57  H         15.3260   16.3040   -1.3310 H       1  UNL1        0.0561
     58  H         14.4770   16.1150   -2.8410 H       1  UNL1        0.0561
     59  H         13.1130   14.5610   -1.9420 H       1  UNL1        0.0324
     60  H         14.0930   14.5630   -0.5320 H       1  UNL1        0.0324
     61 H           8.4641   13.8002    3.1307 H       1  UNL1        0.0805
     62 H           9.6538   16.8397    3.5902 H       1  UNL1        0.1530
@<TRIPOS>BOND
     1     1    12    1
     2     1     2    1
     3     1    22    1
     4     2     7    1
     5     2     3    1
     6     2    61    1
     7     3     4    2
     8     4     5    1
     9     4    13    1
    10     5     6    1
    11     5    62    1
    12     6    11   ar
    13     6     7   ar
    14     7     8   ar
    15     8     9   ar
    16     8    14    1
    17     9    27    1
    18     9    10   ar
    19    10    48    1
    20    10    11   ar
    21    11    15    1
    22    16    17    1
    23    17    23   ar
    24    17    18   ar
    25    18    20   ar
    26    18    19    1
    27    20    21   ar
    28    20    24    1
    29    21    22   ar
    30    21    25    1
    31    22    23   ar
    32    23    26    1
    33    27    30    1
    34    27    28   am
    35    28    29    2
    36    28    31    1
    37    31    33    1
    38    31    32    2
    39    32    34    1
    40    32    35    1
    41    35    36    1
    42    35    37    1
    43    35    38    1
    44    38    40    1
    45    38    39    1
    46    38    44    1
    47    40    42    1
    48    40    43    1
    49    40    41    1
    50    44    45    1
    51    44    46    1
    52    44    47    1
    53    48    49    1
    54    49    53    1
    55    49    50    1
    56    49    54    1
    57    50    56    1
    58    50    51    1
    59    50    55    1
    60    51    52    1
    61    52    58    1
    62    52    57    1
    63    52    53    1
    64    53    59    1
    65    53    60    1
