@<TRIPOS>MOLECULE
UNL
 71 75 0 0 0
SMALL
GASTEIGER

@<TRIPOS>ATOM
      1  C          8.2730   13.7010    2.8680 C.ar    1  UNL1        0.0000
      2  N          9.2530   14.0730    1.9840 N.ar    1  UNL1        0.0000
      3  C          8.8850   14.5540    0.7540 C.ar    1  UNL1        0.0000
      4  N          9.8470   14.8150   -0.2420 N.ar    1  UNL1        0.0000
      5  C          9.4770   15.1050   -1.5550 C.ar    1  UNL1        0.0000
      6  N          8.1470   15.3430   -1.8360 N.ar    1  UNL1        0.0000
      7  C          7.2240   15.2190   -0.9370 C.ar    1  UNL1        0.0000
      8  N          5.8970   15.4610   -1.2600 N.pl3   1  UNL1        0.0000
      9  C          5.0840   16.5710   -0.7000 C.3     1  UNL1        0.0000
     10  C          3.6960   16.0600   -0.2160 C.3     1  UNL1        0.0000
     11  N          3.0600   15.1270   -1.1650 N.am    1  UNL1        0.0000
     12  C          1.7380   15.3410   -1.5100 C.2     1  UNL1        0.0000
     13  O          1.0880   16.2860   -1.0680 O.2     1  UNL1        0.0000
     14  C          3.9460   14.0470   -1.6310 C.3     1  UNL1        0.0000
     15  C          5.2230   14.6240   -2.2590 C.3     1  UNL1        0.0000
     16  O         10.3100   15.1570   -2.4590 O.2     1  UNL1        0.0000
     17  C          7.5520   14.7230    0.4140 C.ar    1  UNL1        0.0000
     18  C          6.5650   14.3130    1.2990 C.ar    1  UNL1        0.0000
     19  C          6.9250   13.7870    2.5210 C.ar    1  UNL1        0.0000
     20  F          5.9500   13.2970    3.2960 F       1  UNL1        0.0000
     21  H          5.6190   16.9670    0.1380 H       1  UNL1        0.0000
     22  H          3.0510   16.9030   -0.0830 H       1  UNL1        0.0000
     23  H          3.8530   15.5270    0.6990 H       1  UNL1        0.0000
     24  H          3.4290   13.4600   -2.3610 H       1  UNL1        0.0000
     25  H          4.2190   13.4410   -0.7920 H       1  UNL1        0.0000
     26  H          5.8710   13.8270   -2.5580 H       1  UNL1        0.0000
     27  H          4.9780   15.2090   -3.1210 H       1  UNL1        0.0000
     28  H          5.5680   14.4020    1.0440 H       1  UNL1        0.0000
     29  C          9.4340   11.8750    4.1720 C.ar    1  UNL1        0.0000
     30  C          8.7120   13.0820    4.1340 C.ar    1  UNL1        0.0000
     31  C          8.3630   13.6290    5.3830 C.ar    1  UNL1        0.0000
     32  F          7.7620   14.8270    5.4560 F       1  UNL1        0.0000
     33  C          8.6270   12.9790    6.5890 C.ar    1  UNL1        0.0000
     34  C          9.2930   11.7590    6.5830 C.ar    1  UNL1        0.0000
     35  C          9.7110   11.2160    5.3720 C.ar    1  UNL1        0.0000
     36  H          8.3300   13.4010    7.4810 H       1  UNL1        0.0000
     37  H          9.4750   11.2620    7.4680 H       1  UNL1        0.0000
     38  H         10.2290   10.3230    5.3600 H       1  UNL1        0.0000
     39  O          9.8950   11.2630    3.0350 O.3     1  UNL1        0.0000
     40  H         10.8120   11.2620    2.8410 H       1  UNL1        0.0000
     41  C         11.2210   14.7090    0.1140 C.ar    1  UNL1        0.0000
     42  C         11.8940   13.4720    0.0240 C.ar    1  UNL1        0.0000
     43  N         13.2280   13.3550    0.2730 N.ar    1  UNL1        0.0000
     44  C         13.8980   14.4570    0.6620 C.ar    1  UNL1        0.0000
     45  C         13.3070   15.6950    0.8250 C.ar    1  UNL1        0.0000
     46  C         11.9420   15.8350    0.5610 C.ar    1  UNL1        0.0000
     47  H         14.9100   14.3720    0.8460 H       1  UNL1        0.0000
     48  H         13.8650   16.5050    1.1380 H       1  UNL1        0.0000
     49  C         11.2940   17.1730    0.7910 C.3     1  UNL1        0.0000
     50  H         11.9270   17.9470    0.4100 H       1  UNL1        0.0000
     51  H         11.1410   17.3200    1.8400 H       1  UNL1        0.0000
     52  H         10.3510   17.2040    0.2850 H       1  UNL1        0.0000
     53  C         11.2060   12.1890   -0.4170 C.3     1  UNL1        0.0000
     54  H         10.1790   12.2620   -0.1240 H       1  UNL1        0.0000
     55  C         11.3020   12.0380   -1.9360 C.3     1  UNL1        0.0000
     56  H         10.9870   12.9470   -2.4050 H       1  UNL1        0.0000
     57  H         10.6700   11.2350   -2.2550 H       1  UNL1        0.0000
     58  H         12.3140   11.8260   -2.2110 H       1  UNL1        0.0000
     59  C         11.7960   10.9470    0.2660 C.3     1  UNL1        0.0000
     60  H         11.4270   10.8820    1.2680 H       1  UNL1        0.0000
     61  H         12.8630   11.0220    0.2830 H       1  UNL1        0.0000
     62  H         11.5090   10.0720   -0.2770 H       1  UNL1        0.0000
     63  C          1.0960   14.3850   -2.4590 C.2     1  UNL1        0.0000
     64  C          0.3050   13.4030   -2.0160 C.2     1  UNL1        0.0000
     65  H          1.2670   14.4840   -3.4710 H       1  UNL1        0.0000
     66  H          0.1290   13.2970   -1.0050 H       1  UNL1        0.0000
     67  H         -0.1300   12.7510   -2.6870 H       1  UNL1        0.0000
     68  C          4.8910   17.6840   -1.7350 C.3     1  UNL1        0.0000
     69  H          5.8340   18.1430   -1.9440 H       1  UNL1        0.0000
     70  H          4.2150   18.4170   -1.3470 H       1  UNL1        0.0000
     71  H          4.4890   17.2680   -2.6340 H       1  UNL1        0.0000
@<TRIPOS>BOND
     1     1     2   ar
     2     1    19   ar
     3     1    30    1
     4     2     3   ar
     5     3     4   ar
     6     3    17   ar
     7     4     5   ar
     8     4    41    1
     9     5    16    2
    10     5     6   ar
    11     6     7   ar
    12     7     8    1
    13     7    17   ar
    14     8    15    1
    15     8     9    1
    16     9    68    1
    17     9    10    1
    18     9    21    1
    19    10    11    1
    20    10    22    1
    21    10    23    1
    22    11    14    1
    23    11    12   am
    24    12    63    1
    25    12    13    2
    26    14    24    1
    27    14    15    1
    28    14    25    1
    29    15    27    1
    30    15    26    1
    31    17    18   ar
    32    18    28    1
    33    18    19   ar
    34    19    20    1
    35    29    39    1
    36    29    30   ar
    37    29    35   ar
    38    30    31   ar
    39    31    32    1
    40    31    33   ar
    41    33    34   ar
    42    33    36    1
    43    34    35   ar
    44    34    37    1
    45    35    38    1
    46    39    40    1
    47    41    42   ar
    48    41    46   ar
    49    42    53    1
    50    42    43   ar
    51    43    44   ar
    52    44    45   ar
    53    44    47    1
    54    45    46   ar
    55    45    48    1
    56    46    49    1
    57    49    52    1
    58    49    50    1
    59    49    51    1
    60    53    55    1
    61    53    54    1
    62    53    59    1
    63    55    56    1
    64    55    57    1
    65    55    58    1
    66    59    62    1
    67    59    61    1
    68    59    60    1
    69    63    65    1
    70    63    64    2
    71    64    67    1
    72    64    66    1
    73    68    71    1
    74    68    69    1
    75    68    70    1
