@<TRIPOS>MOLECULE
UNL
 59 63 0 0 0
SMALL
GASTEIGER

@<TRIPOS>ATOM
      1  N          7.7860   11.8810    5.5190 N.ar    1  UNL1       -0.2449
      2  C          8.0280   13.2220    5.5570 C.ar    1  UNL1        0.1293
      3  C          8.9430   13.4790    4.5480 C.ar    1  UNL1        0.0582
      4  C          9.2910   14.8240    4.3630 C.3     1  UNL1        0.1306
      5  N         10.1170   15.3080    3.3560 N.3     1  UNL1       -0.3056
      6  N          8.7710   15.7540    5.1930 N.2     1  UNL1       -0.2529
      7  C          7.9190   15.3570    6.1540 C.2     1  UNL1        0.0832
      8  N          7.4790   14.1130    6.3980 N.pl3   1  UNL1       -0.2906
      9  C          9.2390   12.1930    3.9920 C.ar    1  UNL1        0.1011
     10  N          8.5000   11.2300    4.5790 N.ar    1  UNL1       -0.1688
     11  H         10.5290   14.6840    2.7150 H       1  UNL1        0.1205
     12  H         10.2910   16.2740    3.2830 H       1  UNL1        0.1205
     13  H          7.5600   16.0970    6.7770 H       1  UNL1        0.0997
     14  O          8.1630    8.4130    9.1290 O.2     1  UNL1       -0.2706
     15  C          7.0470    8.9090    9.2670 C.2     1  UNL1        0.2389
     16  N          6.6190   10.0380    8.5880 N.am    1  UNL1       -0.2960
     17  C          5.4260   10.8210    8.9150 C.3     1  UNL1        0.0151
     18  C          4.6800   11.2060    7.6420 C.3     1  UNL1       -0.0352
     19  C          5.5930   11.9460    6.6650 C.3     1  UNL1       -0.0275
     20  C          7.5620   10.7080    7.6820 C.3     1  UNL1        0.0374
     21  C          6.8740   11.1430    6.3830 C.3     1  UNL1        0.0704
     22  H          5.7180   11.7100    9.4350 H       1  UNL1        0.0465
     23  H          4.7800   10.2300    9.5310 H       1  UNL1        0.0465
     24  H          3.8560   11.8410    7.8990 H       1  UNL1        0.0281
     25  H          4.3330   10.3110    7.1690 H       1  UNL1        0.0281
     26  H          5.8600   12.8930    7.0860 H       1  UNL1        0.0287
     27  H          5.0660   12.0780    5.7430 H       1  UNL1        0.0287
     28  H          8.3570   10.0310    7.4450 H       1  UNL1        0.0485
     29  H          7.9400   11.5800    8.1740 H       1  UNL1        0.0485
     30  H          6.5840   10.2560    5.8610 H       1  UNL1        0.0561
     31  C          6.0690    8.2760   10.1870 C.2     1  UNL1       -0.0067
     32  C          5.4840    7.1220    9.8430 C.2     1  UNL1       -0.0938
     33  H          5.8400    8.7230   11.0880 H       1  UNL1        0.0663
     34  H          5.7130    6.6760    8.9410 H       1  UNL1        0.0536
     35  H          4.8030    6.6780   10.4800 H       1  UNL1        0.0536
     36  C         10.1840   11.8340    2.9280 C.ar    1  UNL1        0.0028
     37  C          9.8880   12.0750    1.5790 C.ar    1  UNL1       -0.0490
     38  C         10.7810   11.6950    0.5720 C.ar    1  UNL1       -0.0187
     39  C         11.4280   11.2710    3.2480 C.ar    1  UNL1       -0.0490
     40  C         12.3250   10.8940    2.2420 C.ar    1  UNL1       -0.0187
     41  C         11.9840   11.0670    0.9020 C.ar    1  UNL1        0.1285
     42  H          9.0000   12.5370    1.3260 H       1  UNL1        0.0625
     43  H         10.5520   11.8800   -0.4180 H       1  UNL1        0.0654
     44  H         11.6850   11.1330    4.2380 H       1  UNL1        0.0625
     45  H         13.2390   10.4860    2.4930 H       1  UNL1        0.0654
     46  O         12.9130   10.6610   -0.0290 O.3     1  UNL1       -0.4560
     47  C         13.9880   11.4800   -0.2910 C.ar    1  UNL1        0.1284
     48  C         15.1570   10.8500   -0.7210 C.ar    1  UNL1       -0.0193
     49  C         16.2920   11.6070   -1.0180 C.ar    1  UNL1       -0.0583
     50  C         16.2540   12.9970   -0.8950 C.ar    1  UNL1       -0.0615
     51  C         15.0770   13.6310   -0.4980 C.ar    1  UNL1       -0.0583
     52  C         13.9380   12.8750   -0.2140 C.ar    1  UNL1       -0.0193
     53  H         15.1840    9.8230   -0.8200 H       1  UNL1        0.0654
     54  H         17.1580   11.1410   -1.3300 H       1  UNL1        0.0619
     55  H         17.0980   13.5560   -1.0970 H       1  UNL1        0.0618
     56  H         15.0470   14.6590   -0.4150 H       1  UNL1        0.0619
     57  H         13.0590   13.3460    0.0540 H       1  UNL1        0.0654
     58 H           9.7569   13.8969    4.1016 H       1  UNL1        0.0764
     59 H           6.8342   13.8825    7.1053 H       1  UNL1        0.1544
@<TRIPOS>BOND
     1     1    10   ar
     2     1     2   ar
     3     1    21    1
     4     2     3   ar
     5     2     8    1
     6     3     9   ar
     7     3     4    1
     8     4     5    1
     9     4     6    1
    10     4    58    1
    11     5    11    1
    12     5    12    1
    13     6     7    2
    14     7     8    1
    15     7    13    1
    16     8    59    1
    17     9    36    1
    18     9    10   ar
    19    14    15    2
    20    15    16   am
    21    15    31    1
    22    16    20    1
    23    16    17    1
    24    17    18    1
    25    17    22    1
    26    17    23    1
    27    18    19    1
    28    18    25    1
    29    18    24    1
    30    19    27    1
    31    19    21    1
    32    19    26    1
    33    20    21    1
    34    20    28    1
    35    20    29    1
    36    21    30    1
    37    31    32    2
    38    31    33    1
    39    32    34    1
    40    32    35    1
    41    36    37   ar
    42    36    39   ar
    43    37    38   ar
    44    37    42    1
    45    38    43    1
    46    38    41   ar
    47    39    40   ar
    48    39    44    1
    49    40    41   ar
    50    40    45    1
    51    41    46    1
    52    46    47    1
    53    47    48   ar
    54    47    52   ar
    55    48    49   ar
    56    48    53    1
    57    49    54    1
    58    49    50   ar
    59    50    55    1
    60    50    51   ar
    61    51    56    1
    62    51    52   ar
    63    52    57    1
