@<TRIPOS>MOLECULE
UNL
 71 74 0 0 0
SMALL
GASTEIGER

@<TRIPOS>ATOM
      1  C          6.5680   11.6500    6.9410 C.ar    1  UNL1        0.0000
      2  C          6.7160   12.4690    8.0600 C.ar    1  UNL1        0.0000
      3  C          6.6060   11.9100    9.3520 C.ar    1  UNL1        0.0000
      4  C          6.2960   10.5490    9.6080 C.ar    1  UNL1        0.0000
      5  C          5.9100    9.8200    8.4670 C.ar    1  UNL1        0.0000
      6  C          6.1200   10.3430    7.1740 C.ar    1  UNL1        0.0000
      7  H          6.7610   12.5310   10.1620 H       1  UNL1        0.0000
      8  H          5.9340    9.7340    6.3610 H       1  UNL1        0.0000
      9  C          9.3190   12.1300    3.0160 C.ar    1  UNL1        0.0000
     10  N          8.1350   12.2850    3.6630 N.ar    1  UNL1        0.0000
     11  C          8.0880   11.9010    4.9480 C.ar    1  UNL1        0.0000
     12  N          9.1530   11.4170    5.6120 N.ar    1  UNL1        0.0000
     13  C         10.3190   11.3480    4.9620 C.ar    1  UNL1        0.0000
     14  C         10.4620   11.7020    3.6530 C.ar    1  UNL1        0.0000
     15  N          6.8750   12.0600    5.6290 N.pl3   1  UNL1        0.0000
     16  H         11.1500   11.0100    5.4740 H       1  UNL1        0.0000
     17  H         11.3720   11.6530    3.1690 H       1  UNL1        0.0000
     18  H          6.1530   12.5090    5.1330 H       1  UNL1        0.0000
     19  N          8.6570   13.2320   -0.3850 N.ar    1  UNL1        0.0000
     20  C          8.3240   13.1020    0.9370 C.ar    1  UNL1        0.0000
     21  C          9.3410   12.4210    1.5820 C.ar    1  UNL1        0.0000
     22  C         10.3240   12.0980    0.5750 C.ar    1  UNL1        0.0000
     23  C         11.5490   11.3920    0.5680 C.ar    1  UNL1        0.0000
     24  C         12.2960   11.2760   -0.6130 C.ar    1  UNL1        0.0000
     25  C         11.8240   11.8320   -1.7940 C.ar    1  UNL1        0.0000
     26  C         10.6060   12.5120   -1.8300 C.ar    1  UNL1        0.0000
     27  C          9.8730   12.6330   -0.6360 C.ar    1  UNL1        0.0000
     28  H          7.4600   13.4540    1.3790 H       1  UNL1        0.0000
     29  H         11.8950   10.9580    1.4380 H       1  UNL1        0.0000
     30  H         13.1990   10.7780   -0.6030 H       1  UNL1        0.0000
     31  H         12.3820   11.7420   -2.6580 H       1  UNL1        0.0000
     32  H         10.2510   12.9160   -2.7110 H       1  UNL1        0.0000
     33  C          7.8470   13.9020   -1.3780 C.3     1  UNL1        0.0000
     34  H          8.4740   14.2590   -2.1680 H       1  UNL1        0.0000
     35  H          7.3390   14.7280   -0.9240 H       1  UNL1        0.0000
     36  H          7.1290   13.2160   -1.7740 H       1  UNL1        0.0000
     37  N          5.2740    8.5650    8.4840 N.am    1  UNL1        0.0000
     38  C          3.9240    8.3790    8.6770 C.2     1  UNL1        0.0000
     39  O          3.4200    7.2650    8.5490 O.2     1  UNL1        0.0000
     40  H          5.8310    7.7650    8.3480 H       1  UNL1        0.0000
     41  C          3.1050    9.5600    9.0600 C.2     1  UNL1        0.0000
     42  C          2.7030    9.7310   10.3240 C.2     1  UNL1        0.0000
     43  H          2.8440   10.2560    8.3420 H       1  UNL1        0.0000
     44  H          2.9610    9.0400   11.0450 H       1  UNL1        0.0000
     45  H          2.1350   10.5540   10.5780 H       1  UNL1        0.0000
     46  N          6.4360   10.0650   10.9170 N.pl3   1  UNL1        0.0000
     47  C          7.2000    8.8870   11.3420 C.3     1  UNL1        0.0000
     48  H          7.5590    8.3640   10.4810 H       1  UNL1        0.0000
     49  H          6.5670    8.2410   11.9140 H       1  UNL1        0.0000
     50  H          8.0290    9.1980   11.9420 H       1  UNL1        0.0000
     51  C          6.3790   11.0880   12.0000 C.3     1  UNL1        0.0000
     52  H          6.1000   12.0320   11.5800 H       1  UNL1        0.0000
     53  H          7.3430   11.1640   12.4590 H       1  UNL1        0.0000
     54  C          5.3420   10.6770   13.0670 C.3     1  UNL1        0.0000
     55  H          5.7680    9.8910   13.6550 H       1  UNL1        0.0000
     56  H          4.4650   10.3830   12.5290 H       1  UNL1        0.0000
     57  N          4.9160   11.7540   13.9840 N.4     1  UNL1        0.0000
     58  H          5.4910   12.5760   13.8000 H       1  UNL1        0.0000
     59  C          3.5220   12.1360   13.7660 C.3     1  UNL1        0.0000
     60  H          2.8780   11.3850   14.1770 H       1  UNL1        0.0000
     61  H          3.3370   12.2280   12.7160 H       1  UNL1        0.0000
     62  H          3.3290   13.0730   14.2450 H       1  UNL1        0.0000
     63  C          5.1020   11.3070   15.3680 C.3     1  UNL1        0.0000
     64  H          5.6980   10.4180   15.3790 H       1  UNL1        0.0000
     65  H          4.1480   11.1020   15.8070 H       1  UNL1        0.0000
     66  H          5.5950   12.0730   15.9290 H       1  UNL1        0.0000
     67  O          7.0980   13.7870    8.0320 O.3     1  UNL1        0.0000
     68  C          7.3380   14.3820    9.3060 C.3     1  UNL1        0.0000
     69  H          8.3750   14.2870    9.5540 H       1  UNL1        0.0000
     70  H          6.7470   13.8890   10.0480 H       1  UNL1        0.0000
     71  H          7.0750   15.4190    9.2700 H       1  UNL1        0.0000
@<TRIPOS>BOND
     1     1    15    1
     2     1     6   ar
     3     1     2   ar
     4     2    67    1
     5     2     3   ar
     6     3     4   ar
     7     3     7    1
     8     4     5   ar
     9     4    46    1
    10     5     6   ar
    11     5    37    1
    12     6     8    1
    13     9    21    1
    14     9    14   ar
    15     9    10   ar
    16    10    11   ar
    17    11    12   ar
    18    11    15    1
    19    12    13   ar
    20    13    14   ar
    21    13    16    1
    22    14    17    1
    23    15    18    1
    24    19    33    1
    25    19    27   ar
    26    19    20   ar
    27    20    28    1
    28    20    21   ar
    29    21    22   ar
    30    22    27   ar
    31    22    23   ar
    32    23    24   ar
    33    23    29    1
    34    24    25   ar
    35    24    30    1
    36    25    31    1
    37    25    26   ar
    38    26    32    1
    39    26    27   ar
    40    33    34    1
    41    33    36    1
    42    33    35    1
    43    37    40    1
    44    37    38   am
    45    38    39    2
    46    38    41    1
    47    41    43    1
    48    41    42    2
    49    42    45    1
    50    42    44    1
    51    46    47    1
    52    46    51    1
    53    47    48    1
    54    47    49    1
    55    47    50    1
    56    51    52    1
    57    51    53    1
    58    51    54    1
    59    54    56    1
    60    54    55    1
    61    54    57    1
    62    57    59    1
    63    57    58    1
    64    57    63    1
    65    59    61    1
    66    59    60    1
    67    59    62    1
    68    63    64    1
    69    63    65    1
    70    63    66    1
    71    67    68    1
    72    68    71    1
    73    68    69    1
    74    68    70    1
