@<TRIPOS>MOLECULE
UNL
 57 59 0 0 0
SMALL
GASTEIGER

@<TRIPOS>ATOM
      1  N         11.9540   11.4500    0.7590 N.am    1  UNL1        0.0000
      2  C         10.9020   11.4160   -0.1700 C.2     1  UNL1        0.0000
      3  O          9.8020   10.9270    0.0830 O.2     1  UNL1        0.0000
      4  C         13.2600   11.8260    0.3700 C.ar    1  UNL1        0.0000
      5  C         13.6070   13.1770    0.2960 C.ar    1  UNL1        0.0000
      6  C         14.8470   13.5360   -0.2380 C.ar    1  UNL1        0.0000
      7  C         15.7390   12.5570   -0.6810 C.ar    1  UNL1        0.0000
      8  C         15.3780   11.2120   -0.6060 C.ar    1  UNL1        0.0000
      9  C         14.1380   10.8450   -0.0870 C.ar    1  UNL1        0.0000
     10  H         12.9540   13.9020    0.6330 H       1  UNL1        0.0000
     11  H         15.1070   14.5330   -0.3050 H       1  UNL1        0.0000
     12  H         16.0330   10.4850   -0.9370 H       1  UNL1        0.0000
     13  H         13.8690    9.8500   -0.0430 H       1  UNL1        0.0000
     14  O         16.9200   13.0230   -1.1960 O.3     1  UNL1        0.0000
     15  C         18.0500   12.1580   -1.0850 C.3     1  UNL1        0.0000
     16  C         19.0630   12.6760   -0.0520 C.3     1  UNL1        0.0000
     17  C         20.4320   12.6440   -0.7300 C.3     1  UNL1        0.0000
     18  C         20.2560   11.8120   -1.9980 C.3     1  UNL1        0.0000
     19  C         18.8170   12.1230   -2.4050 C.3     1  UNL1        0.0000
     20  H         17.6640   11.2010   -0.8020 H       1  UNL1        0.0000
     21  H         19.0650   12.0440    0.8120 H       1  UNL1        0.0000
     22  H         18.8150   13.6650    0.2690 H       1  UNL1        0.0000
     23  H         21.1560   12.1900   -0.0850 H       1  UNL1        0.0000
     24  H         20.7810   13.6310   -0.9540 H       1  UNL1        0.0000
     25  H         20.9660   12.0450   -2.7640 H       1  UNL1        0.0000
     26  H         18.7600   13.0670   -2.9030 H       1  UNL1        0.0000
     27  H         18.4220   11.3990   -3.0880 H       1  UNL1        0.0000
     28  N         20.4550   10.3880   -1.7310 N.4     1  UNL1        0.0000
     29  H         21.2290   10.0410   -2.2970 H       1  UNL1        0.0000
     30  H         19.6060    9.8770   -1.9660 H       1  UNL1        0.0000
     31  H         20.6720   10.2540   -0.7430 H       1  UNL1        0.0000
     32  C         11.1630   12.0000   -1.5260 C.2     1  UNL1        0.0000
     33  C         10.5260   13.0970   -1.9620 C.2     1  UNL1        0.0000
     34  H         11.8540   11.5450   -2.1430 H       1  UNL1        0.0000
     35  H          9.8320   13.5650   -1.3570 H       1  UNL1        0.0000
     36  H         10.7290   13.4740   -2.9000 H       1  UNL1        0.0000
     37  C         11.7560   10.8280    2.0880 C.3     1  UNL1        0.0000
     38  H         11.1800    9.9490    1.8870 H       1  UNL1        0.0000
     39  C          9.9320   13.9510    3.4340 C.ar    1  UNL1        0.0000
     40  C          9.3950   13.4710    4.6380 C.ar    1  UNL1        0.0000
     41  C          9.7030   12.1550    5.0320 C.ar    1  UNL1        0.0000
     42  C         10.4900   11.3270    4.2300 C.ar    1  UNL1        0.0000
     43  C         10.9960   11.7870    3.0080 C.ar    1  UNL1        0.0000
     44  C         10.7260   13.1110    2.6330 C.ar    1  UNL1        0.0000
     45  H          9.3390   11.7960    5.9280 H       1  UNL1        0.0000
     46  H         10.7000   10.3660    4.5410 H       1  UNL1        0.0000
     47  H         11.1160   13.4750    1.7500 H       1  UNL1        0.0000
     48  C          8.4640   14.2670    5.5210 C.3     1  UNL1        0.0000
     49  F          8.8660   15.5330    5.7960 F       1  UNL1        0.0000
     50  F          7.2250   14.3880    4.9670 F       1  UNL1        0.0000
     51  F          8.2700   13.6710    6.7310 F       1  UNL1        0.0000
     52  N          9.5030   16.3410    2.5150 N.1     1  UNL1        0.0000
     53  C          9.6900   15.2810    2.9490 C.1     1  UNL1        0.0000
     54  C         13.0210   10.3000    2.7930 C.3     1  UNL1        0.0000
     55  H         12.8260   10.1880    3.8400 H       1  UNL1        0.0000
     56  H         13.8240   10.9950    2.6540 H       1  UNL1        0.0000
     57  H         13.2940    9.3530    2.3780 H       1  UNL1        0.0000
@<TRIPOS>BOND
     1     1     2   am
     2     1     4    1
     3     1    37    1
     4     2    32    1
     5     2     3    2
     6     4     9   ar
     7     4     5   ar
     8     5     6   ar
     9     5    10    1
    10     6     7   ar
    11     6    11    1
    12     7    14    1
    13     7     8   ar
    14     8    12    1
    15     8     9   ar
    16     9    13    1
    17    14    15    1
    18    15    19    1
    19    15    20    1
    20    15    16    1
    21    16    17    1
    22    16    22    1
    23    16    21    1
    24    17    18    1
    25    17    24    1
    26    17    23    1
    27    18    25    1
    28    18    19    1
    29    18    28    1
    30    19    27    1
    31    19    26    1
    32    28    29    1
    33    28    30    1
    34    28    31    1
    35    32    34    1
    36    32    33    2
    37    33    36    1
    38    33    35    1
    39    37    38    1
    40    37    54    1
    41    37    43    1
    42    39    44   ar
    43    39    53    1
    44    39    40   ar
    45    40    41   ar
    46    40    48    1
    47    41    42   ar
    48    41    45    1
    49    42    43   ar
    50    42    46    1
    51    43    44   ar
    52    44    47    1
    53    48    50    1
    54    48    49    1
    55    48    51    1
    56    52    53    3
    57    54    57    1
    58    54    56    1
    59    54    55    1
