@<TRIPOS>MOLECULE
UNL
 53 55 0 0 0
SMALL
GASTEIGER

@<TRIPOS>ATOM
      1  C          9.4950   13.9160    0.5780 C.ar    1  UNL1        0.0000
      2  C          9.9960   14.4670    1.7580 C.ar    1  UNL1        0.0000
      3  C          9.1820   14.5270    2.8860 C.ar    1  UNL1        0.0000
      4  F          9.7360   15.0010    4.0100 F       1  UNL1        0.0000
      5  C          7.8590   14.0790    2.8490 C.ar    1  UNL1        0.0000
      6  C          7.3440   13.6000    1.6390 C.ar    1  UNL1        0.0000
      7  C          8.1640   13.4940    0.5140 C.ar    1  UNL1        0.0000
      8  H         10.9630   14.8260    1.7950 H       1  UNL1        0.0000
      9  H          6.3520   13.3260    1.5780 H       1  UNL1        0.0000
     10  H          7.7870   13.1040   -0.3640 H       1  UNL1        0.0000
     11  N         10.3910   13.5970   -0.4720 N.am    1  UNL1        0.0000
     12  C         11.3140   14.5490   -0.9310 C.2     1  UNL1        0.0000
     13  O         12.2970   14.2730   -1.6190 O.2     1  UNL1        0.0000
     14  C         11.0520   15.9730   -0.5450 C.2     1  UNL1        0.0000
     15  C         10.5990   16.8800   -1.4250 C.2     1  UNL1        0.0000
     16  H         11.2260   16.2660    0.4280 H       1  UNL1        0.0000
     17  H         10.4180   16.6060   -2.4040 H       1  UNL1        0.0000
     18  H         10.4300   17.8520   -1.1230 H       1  UNL1        0.0000
     19  C         10.5510   12.1850   -0.8950 C.3     1  UNL1        0.0000
     20  H          9.5540   11.7970   -0.9200 H       1  UNL1        0.0000
     21 CL         13.8670    9.3780    3.3350 Cl      1  UNL1        0.0000
     22  C         12.9220   10.1180    2.1010 C.ar    1  UNL1        0.0000
     23  C         11.5520   10.2790    2.2800 C.ar    1  UNL1        0.0000
     24  C         10.7960   10.9210    1.2960 C.ar    1  UNL1        0.0000
     25  C         11.3970   11.4130    0.1240 C.ar    1  UNL1        0.0000
     26  C         12.7790   11.2170   -0.0470 C.ar    1  UNL1        0.0000
     27  C         13.5350   10.5710    0.9360 C.ar    1  UNL1        0.0000
     28  H         11.0970    9.9270    3.1370 H       1  UNL1        0.0000
     29  H          9.7790   11.0360    1.4320 H       1  UNL1        0.0000
     30  H         13.2390   11.5540   -0.9060 H       1  UNL1        0.0000
     31  H         14.5490   10.4300    0.7980 H       1  UNL1        0.0000
     32  C         11.0760   11.9640   -2.3250 C.3     1  UNL1        0.0000
     33  H         10.5000   12.5500   -3.0100 H       1  UNL1        0.0000
     34  H         10.9890   10.9290   -2.5810 H       1  UNL1        0.0000
     35  H         12.1030   12.2600   -2.3780 H       1  UNL1        0.0000
     36  O          6.9760   14.0410    3.8950 O.3     1  UNL1        0.0000
     37  C          7.1490   13.0250    4.8860 C.3     1  UNL1        0.0000
     38  C          7.8820   13.5330    6.1370 C.3     1  UNL1        0.0000
     39  C          8.9930   12.5270    6.4430 C.3     1  UNL1        0.0000
     40  C          8.7470   11.3220    5.5370 C.3     1  UNL1        0.0000
     41  C          8.0660   11.9400    4.3200 C.3     1  UNL1        0.0000
     42  H          6.1670   12.6850    5.1410 H       1  UNL1        0.0000
     43  H          7.2030   13.5920    6.9620 H       1  UNL1        0.0000
     44  H          8.2860   14.5100    5.9730 H       1  UNL1        0.0000
     45  H          8.9530   12.2310    7.4700 H       1  UNL1        0.0000
     46  H          9.9610   12.9510    6.2680 H       1  UNL1        0.0000
     47  H          9.6420   10.7920    5.2880 H       1  UNL1        0.0000
     48  H          8.7930   12.3660    3.6600 H       1  UNL1        0.0000
     49  H          7.5250   11.2130    3.7500 H       1  UNL1        0.0000
     50  N          7.9000   10.3260    6.1880 N.4     1  UNL1        0.0000
     51  H          7.8810    9.4750    5.6270 H       1  UNL1        0.0000
     52  H          6.9530   10.6930    6.2810 H       1  UNL1        0.0000
     53  H          8.2740   10.1150    7.1140 H       1  UNL1        0.0000
@<TRIPOS>BOND
     1     1    11    1
     2     1     7   ar
     3     1     2   ar
     4     2     8    1
     5     2     3   ar
     6     3     5   ar
     7     3     4    1
     8     5     6   ar
     9     5    36    1
    10     6     7   ar
    11     6     9    1
    12     7    10    1
    13    11    12   am
    14    11    19    1
    15    12    13    2
    16    12    14    1
    17    14    15    2
    18    14    16    1
    19    15    17    1
    20    15    18    1
    21    19    32    1
    22    19    20    1
    23    19    25    1
    24    21    22    1
    25    22    27   ar
    26    22    23   ar
    27    23    24   ar
    28    23    28    1
    29    24    25   ar
    30    24    29    1
    31    25    26   ar
    32    26    30    1
    33    26    27   ar
    34    27    31    1
    35    32    33    1
    36    32    34    1
    37    32    35    1
    38    36    37    1
    39    37    41    1
    40    37    42    1
    41    37    38    1
    42    38    44    1
    43    38    39    1
    44    38    43    1
    45    39    40    1
    46    39    46    1
    47    39    45    1
    48    40    41    1
    49    40    47    1
    50    40    50    1
    51    41    48    1
    52    41    49    1
    53    50    51    1
    54    50    52    1
    55    50    53    1
