@<TRIPOS>MOLECULE
UNL
 69 72 0 0 0
SMALL
GASTEIGER

@<TRIPOS>ATOM
      1  C         11.0480   12.5810    1.6430 C.ar    1  UNL1        0.0000
      2  C         11.5380   13.8090    2.0830 C.ar    1  UNL1        0.0000
      3  C         10.6620   14.8130    2.4940 C.ar    1  UNL1        0.0000
      4  F         11.2060   15.9720    2.8800 F       1  UNL1        0.0000
      5  C          9.2810   14.6080    2.5210 C.ar    1  UNL1        0.0000
      6  C          8.7900   13.3750    2.0740 C.ar    1  UNL1        0.0000
      7  C          9.6660   12.3590    1.6480 C.ar    1  UNL1        0.0000
      8  H         12.5550   13.9780    2.1030 H       1  UNL1        0.0000
      9  H          7.7710   13.2070    2.0570 H       1  UNL1        0.0000
     10  H          9.2900   11.4500    1.3390 H       1  UNL1        0.0000
     11  N         11.9590   11.5150    1.3650 N.am    1  UNL1        0.0000
     12  C         12.3760   10.7730    2.4780 C.2     1  UNL1        0.0000
     13  O         12.0010   11.0220    3.6270 O.2     1  UNL1        0.0000
     14  C         13.3060    9.6260    2.2620 C.2     1  UNL1        0.0000
     15  C         13.3960    8.6460    3.1690 C.2     1  UNL1        0.0000
     16  H         13.8850    9.5890    1.4080 H       1  UNL1        0.0000
     17  H         12.8190    8.6800    4.0240 H       1  UNL1        0.0000
     18  H         14.0420    7.8560    3.0140 H       1  UNL1        0.0000
     19  C         12.3870   11.2760   -0.0450 C.3     1  UNL1        0.0000
     20  H         12.3320   10.2090   -0.1140 H       1  UNL1        0.0000
     21 CL         17.9500   13.2460   -1.4410 Cl      1  UNL1        0.0000
     22  C         16.3940   12.6770   -0.9780 C.ar    1  UNL1        0.0000
     23  C         15.4090   13.5840   -0.5980 C.ar    1  UNL1        0.0000
     24  C         14.1330   13.1240   -0.2590 C.ar    1  UNL1        0.0000
     25  C         13.8200   11.7530   -0.3190 C.ar    1  UNL1        0.0000
     26  C         14.8460   10.8550   -0.6470 C.ar    1  UNL1        0.0000
     27  C         16.1220   11.3140   -0.9880 C.ar    1  UNL1        0.0000
     28  H         15.6200   14.5930   -0.5670 H       1  UNL1        0.0000
     29  H         13.4110   13.7970    0.0410 H       1  UNL1        0.0000
     30  H         14.6570    9.8400   -0.6360 H       1  UNL1        0.0000
     31  H         16.8610   10.6410   -1.2470 H       1  UNL1        0.0000
     32  C         11.4570   11.8210   -1.1390 C.3     1  UNL1        0.0000
     33  H         10.4420   11.7700   -0.8040 H       1  UNL1        0.0000
     34  H         11.5690   11.2340   -2.0280 H       1  UNL1        0.0000
     35  H         11.7120   12.8390   -1.3500 H       1  UNL1        0.0000
     36  O          8.3380   15.5110    2.9550 O.3     1  UNL1        0.0000
     37  C          7.5640   15.1660    4.1180 C.3     1  UNL1        0.0000
     38  C          6.2260   15.9070    4.1370 C.3     1  UNL1        0.0000
     39  C          5.8870   16.1630    5.5960 C.3     1  UNL1        0.0000
     40  C          7.2240   16.2140    6.3250 C.3     1  UNL1        0.0000
     41  C          8.2910   15.6360    5.3890 C.3     1  UNL1        0.0000
     42  H          7.4250   14.1060    4.0860 H       1  UNL1        0.0000
     43  H          5.4660   15.3050    3.6830 H       1  UNL1        0.0000
     44  H          6.2860   16.8240    3.5890 H       1  UNL1        0.0000
     45  H          5.2810   15.3720    5.9840 H       1  UNL1        0.0000
     46  H          5.3350   17.0710    5.7200 H       1  UNL1        0.0000
     47  H          7.4930   17.2310    6.5230 H       1  UNL1        0.0000
     48  H          9.0120   16.3880    5.1440 H       1  UNL1        0.0000
     49  H          8.8100   14.8250    5.8550 H       1  UNL1        0.0000
     50  N          7.2040   15.7350    7.7080 N.am    1  UNL1        0.0000
     51  C          7.0860   14.5620    8.3510 C.2     1  UNL1        0.0000
     52  N          7.0930   13.4140    7.6260 N.am    1  UNL1        0.0000
     53  O          7.0280   14.5610    9.5770 O.2     1  UNL1        0.0000
     54  H          7.3030   16.4800    8.3450 H       1  UNL1        0.0000
     55  H          7.0660   13.4770    6.6430 H       1  UNL1        0.0000
     56  C          7.1400   12.0800    8.2490 C.3     1  UNL1        0.0000
     57  C          7.8000   11.0220    7.3390 C.3     1  UNL1        0.0000
     58  C          6.8780   10.8860    6.1340 C.3     1  UNL1        0.0000
     59  S          5.2330   11.0540    6.8120 S.O2    1  UNL1        0.0000
     60  C          5.7340   11.5200    8.4640 C.3     1  UNL1        0.0000
     61  O          4.5880   12.2040    6.2050 O.2     1  UNL1        0.0000
     62  O          4.5940    9.7580    6.8670 O.2     1  UNL1        0.0000
     63  H          7.6840   12.2320    9.1580 H       1  UNL1        0.0000
     64  H          7.8840   10.0870    7.8530 H       1  UNL1        0.0000
     65  H          8.7890   11.3090    7.0500 H       1  UNL1        0.0000
     66  H          6.9990    9.9290    5.6700 H       1  UNL1        0.0000
     67  H          7.0830   11.6140    5.3780 H       1  UNL1        0.0000
     68  H          5.0820   12.2650    8.8690 H       1  UNL1        0.0000
     69  H          5.7060   10.7070    9.1590 H       1  UNL1        0.0000
@<TRIPOS>BOND
     1     1    11    1
     2     1     7   ar
     3     1     2   ar
     4     2     8    1
     5     2     3   ar
     6     3     5   ar
     7     3     4    1
     8     5     6   ar
     9     5    36    1
    10     6     7   ar
    11     6     9    1
    12     7    10    1
    13    11    19    1
    14    11    12   am
    15    12    14    1
    16    12    13    2
    17    14    16    1
    18    14    15    2
    19    15    18    1
    20    15    17    1
    21    19    32    1
    22    19    25    1
    23    19    20    1
    24    21    22    1
    25    22    27   ar
    26    22    23   ar
    27    23    28    1
    28    23    24   ar
    29    24    25   ar
    30    24    29    1
    31    25    26   ar
    32    26    27   ar
    33    26    30    1
    34    27    31    1
    35    32    34    1
    36    32    35    1
    37    32    33    1
    38    36    37    1
    39    37    42    1
    40    37    38    1
    41    37    41    1
    42    38    44    1
    43    38    43    1
    44    38    39    1
    45    39    46    1
    46    39    45    1
    47    39    40    1
    48    40    41    1
    49    40    47    1
    50    40    50    1
    51    41    48    1
    52    41    49    1
    53    50    54    1
    54    50    51   am
    55    51    52   am
    56    51    53    2
    57    52    55    1
    58    52    56    1
    59    56    57    1
    60    56    60    1
    61    56    63    1
    62    57    58    1
    63    57    65    1
    64    57    64    1
    65    58    67    1
    66    58    66    1
    67    58    59    1
    68    59    61    2
    69    59    62    2
    70    59    60    1
    71    60    68    1
    72    60    69    1
