@<TRIPOS>MOLECULE
UNL
 69 72 0 0 0
SMALL
GASTEIGER

@<TRIPOS>ATOM
      1  C         11.2750   13.1680    1.3070 C.ar    1  UNL1        0.0000
      2  C          9.8980   13.2990    1.1050 C.ar    1  UNL1        0.0000
      3  C          9.2390   14.5380    1.2470 C.ar    1  UNL1        0.0000
      4 CL          7.5290   14.4670    1.0080 Cl      1  UNL1        0.0000
      5  C          9.9530   15.6860    1.6130 C.ar    1  UNL1        0.0000
      6  C         11.3340   15.5280    1.8630 C.ar    1  UNL1        0.0000
      7  C         11.9900   14.2890    1.7170 C.ar    1  UNL1        0.0000
      8  H          9.3480   12.4640    0.8430 H       1  UNL1        0.0000
      9  H         11.8830   16.3490    2.1630 H       1  UNL1        0.0000
     10  H         13.0000   14.2130    1.9150 H       1  UNL1        0.0000
     11  N         11.8870   11.8760    1.1690 N.am    1  UNL1        0.0000
     12  C         12.1250   11.1600    2.3490 C.2     1  UNL1        0.0000
     13  O         11.9000   11.6220    3.4710 O.2     1  UNL1        0.0000
     14  C         12.5950    9.7410    2.2450 C.2     1  UNL1        0.0000
     15  C         13.3960    9.2060    3.1820 C.2     1  UNL1        0.0000
     16  H         12.2980    9.1660    1.4420 H       1  UNL1        0.0000
     17  H         13.6970    9.7750    3.9890 H       1  UNL1        0.0000
     18  H         13.7100    8.2270    3.0940 H       1  UNL1        0.0000
     19  C         12.2950   11.4460   -0.2010 C.3     1  UNL1        0.0000
     20  H         12.1280   10.3890   -0.2150 H       1  UNL1        0.0000
     21 CL         18.1680   12.4880   -1.3030 Cl      1  UNL1        0.0000
     22  C         16.5090   12.1860   -0.9650 C.ar    1  UNL1        0.0000
     23  C         15.6680   13.2390   -0.6220 C.ar    1  UNL1        0.0000
     24  C         14.3150   12.9940   -0.3660 C.ar    1  UNL1        0.0000
     25  C         13.7840   11.6930   -0.4520 C.ar    1  UNL1        0.0000
     26  C         14.6570   10.6450   -0.7900 C.ar    1  UNL1        0.0000
     27  C         16.0110   10.8890   -1.0420 C.ar    1  UNL1        0.0000
     28  H         16.0420   14.2000   -0.5560 H       1  UNL1        0.0000
     29  H         13.6960   13.7790   -0.1100 H       1  UNL1        0.0000
     30  H         14.2940    9.6810   -0.8530 H       1  UNL1        0.0000
     31  H         16.6400   10.1080   -1.2850 H       1  UNL1        0.0000
     32  C         11.4120   11.9720   -1.3440 C.3     1  UNL1        0.0000
     33  H         10.3990   11.6690   -1.1800 H       1  UNL1        0.0000
     34  H         11.7570   11.5720   -2.2740 H       1  UNL1        0.0000
     35  H         11.4640   13.0400   -1.3730 H       1  UNL1        0.0000
     36  O          9.5010   16.9620    1.8460 O.3     1  UNL1        0.0000
     37  C          8.5660   17.2720    2.8900 C.3     1  UNL1        0.0000
     38  C          8.8100   18.6590    3.4840 C.3     1  UNL1        0.0000
     39  C          8.3350   18.5650    4.9270 C.3     1  UNL1        0.0000
     40  C          8.7200   17.1570    5.3580 C.3     1  UNL1        0.0000
     41  C          8.7490   16.2990    4.0860 C.3     1  UNL1        0.0000
     42  H          7.5970   17.2040    2.4400 H       1  UNL1        0.0000
     43  H          8.2480   19.3990    2.9520 H       1  UNL1        0.0000
     44  H          9.8380   18.9460    3.4190 H       1  UNL1        0.0000
     45  H          7.2760   18.7030    4.9880 H       1  UNL1        0.0000
     46  H          8.7710   19.3180    5.5510 H       1  UNL1        0.0000
     47  H          9.7080   17.0980    5.7660 H       1  UNL1        0.0000
     48  H          9.6850   15.7880    4.0060 H       1  UNL1        0.0000
     49  H          7.9760   15.5590    4.1030 H       1  UNL1        0.0000
     50  N          8.0280   16.6830    6.5580 N.am    1  UNL1        0.0000
     51  C          7.5700   15.5030    7.0430 C.2     1  UNL1        0.0000
     52  N          8.0740   14.3540    6.5460 N.am    1  UNL1        0.0000
     53  O          6.7430   15.5240    7.9490 O.2     1  UNL1        0.0000
     54  H          7.8450   17.4220    7.1810 H       1  UNL1        0.0000
     55  H          8.6480   14.3900    5.7470 H       1  UNL1        0.0000
     56  C          7.7920   13.0400    7.1680 C.3     1  UNL1        0.0000
     57  C          8.8800   11.9770    6.9040 C.3     1  UNL1        0.0000
     58  C          8.8300   11.6730    5.4090 C.3     1  UNL1        0.0000
     59  S          7.1050   11.8580    4.9650 S.O2    1  UNL1        0.0000
     60  C          6.5380   12.4060    6.5680 C.3     1  UNL1        0.0000
     61  O          6.9820   12.9790    4.0530 O.2     1  UNL1        0.0000
     62  O          6.5330   10.5570    4.6820 O.2     1  UNL1        0.0000
     63  H          7.7120   13.2680    8.2110 H       1  UNL1        0.0000
     64  H          8.6770   11.0900    7.4680 H       1  UNL1        0.0000
     65  H          9.8470   12.3290    7.1980 H       1  UNL1        0.0000
     66  H          9.1650   10.6770    5.2150 H       1  UNL1        0.0000
     67  H          9.4660   12.3230    4.8440 H       1  UNL1        0.0000
     68  H          5.7510   13.1240    6.4740 H       1  UNL1        0.0000
     69  H          6.1320   11.6180    7.1660 H       1  UNL1        0.0000
@<TRIPOS>BOND
     1     1     2   ar
     2     1    11    1
     3     1     7   ar
     4     2     8    1
     5     2     3   ar
     6     3     4    1
     7     3     5   ar
     8     5    36    1
     9     5     6   ar
    10     6     7   ar
    11     6     9    1
    12     7    10    1
    13    11    19    1
    14    11    12   am
    15    12    14    1
    16    12    13    2
    17    14    16    1
    18    14    15    2
    19    15    18    1
    20    15    17    1
    21    19    32    1
    22    19    25    1
    23    19    20    1
    24    21    22    1
    25    22    27   ar
    26    22    23   ar
    27    23    28    1
    28    23    24   ar
    29    24    25   ar
    30    24    29    1
    31    25    26   ar
    32    26    27   ar
    33    26    30    1
    34    27    31    1
    35    32    34    1
    36    32    35    1
    37    32    33    1
    38    36    37    1
    39    37    42    1
    40    37    38    1
    41    37    41    1
    42    38    43    1
    43    38    44    1
    44    38    39    1
    45    39    45    1
    46    39    40    1
    47    39    46    1
    48    40    41    1
    49    40    47    1
    50    40    50    1
    51    41    48    1
    52    41    49    1
    53    50    51   am
    54    50    54    1
    55    51    52   am
    56    51    53    2
    57    52    55    1
    58    52    56    1
    59    56    60    1
    60    56    57    1
    61    56    63    1
    62    57    58    1
    63    57    65    1
    64    57    64    1
    65    58    67    1
    66    58    59    1
    67    58    66    1
    68    59    61    2
    69    59    62    2
    70    59    60    1
    71    60    68    1
    72    60    69    1
