@<TRIPOS>MOLECULE
UNL
 154 160 0 0 0
SMALL
GASTEIGER

@<TRIPOS>ATOM
      1  C          8.0840   14.4270    0.1290 C.3     1  UNL1        0.0573
      2  C          7.3110   15.1470    1.0590 C.3     1  UNL1        0.0093
      3  C          7.3140   16.6610    1.0490 C.3     1  UNL1       -0.0359
      4  C          6.0880   17.5140    1.4430 C.3     1  UNL1       -0.0000
      5  C          6.2460   18.0500    2.8990 C.3     1  UNL1        0.0976
      6  O          6.9380   17.3270    3.9090 O.3     1  UNL1       -0.4630
      7  C          7.0180   17.8880    5.1750 C.2     1  UNL1        0.3259
      8  C          8.1480   17.1630    5.9670 C.3     1  UNL1        0.1220
      9  N          7.6530   16.0920    6.8470 N.3     1  UNL1       -0.2241
     10  N          6.9110   15.1020    6.1510 N.am    1  UNL1       -0.2348
     11  C          5.5090   15.2710    6.1460 C.2     1  UNL1        0.2495
     12  C          4.7320   14.2230    6.9510 C.3     1  UNL1        0.1032
     13  C          4.0680   13.1820    6.0200 C.3     1  UNL1        0.0019
     14  C          2.7790   13.5970    5.2720 C.3     1  UNL1        0.0765
     15  C          2.9540   14.3750    3.9320 C.3     1  UNL1        0.0386
     16  N          3.0250   13.5000    2.7450 N.pl3   1  UNL1       -0.3252
     17  C          2.0400   12.4350    2.6890 C.3     1  UNL1        0.0357
     18  C          2.1840   11.6310    3.9880 C.3     1  UNL1        0.0637
     19  O          1.9050   12.4470    5.1390 O.3     1  UNL1       -0.3734
     20  O          4.9190   16.2320    5.6530 O.2     1  UNL1       -0.2723
     21  C          7.5910   14.5150    4.9860 C.3     1  UNL1        0.0310
     22  C          8.6170   15.3780    4.2400 C.3     1  UNL1       -0.0337
     23  C          9.1930   16.5540    5.0290 C.3     1  UNL1       -0.0242
     24  O          6.3420   18.7770    5.6160 O.2     1  UNL1       -0.2490
     25  C          6.1640   14.3170    1.0620 C.ar    1  UNL1       -0.0194
     26  C          5.8450   14.2920   -0.2940 C.ar    1  UNL1        0.0338
     27  C          4.4880   14.2200   -0.6590 C.ar    1  UNL1       -0.0386
     28  C          3.5340   13.9670    0.3760 C.ar    1  UNL1       -0.0389
     29  C          3.8980   13.7420    1.7090 C.ar    1  UNL1        0.0302
     30  C          5.2410   13.8980    2.0200 C.ar    1  UNL1       -0.0354
     31  N          7.1000   14.4540   -0.9120 N.pl3   1  UNL1       -0.3222
     32  H          7.5610   16.9470    0.0470 H       1  UNL1        0.0278
     33  H          7.9880   16.8750    1.8520 H       1  UNL1        0.0278
     34  H          5.2530   18.2020    3.2700 H       1  UNL1        0.0703
     35  H          6.8890   18.8940    2.7540 H       1  UNL1        0.0703
     36  H          8.5860   17.9280    6.5740 H       1  UNL1        0.0592
     37  H          7.0530   16.5060    7.5600 H       1  UNL1        0.1454
     38  H          5.3810   13.6280    7.5590 H       1  UNL1        0.0596
     39  H          3.8280   12.3270    6.6170 H       1  UNL1        0.0313
     40  H          4.7870   13.0180    5.2450 H       1  UNL1        0.0313
     41  H          2.3250   14.3420    5.8920 H       1  UNL1        0.0612
     42  H          3.8590   14.9440    3.9870 H       1  UNL1        0.0489
     43  H          2.0890   14.9950    3.8130 H       1  UNL1        0.0489
     44  H          2.2270   11.8050    1.8440 H       1  UNL1        0.0486
     45  H          1.0510   12.8300    2.5890 H       1  UNL1        0.0486
     46  H          3.1840   11.2580    4.0600 H       1  UNL1        0.0575
     47  H          1.4800   10.8240    3.9670 H       1  UNL1        0.0575
     48  H          6.8350   14.2400    4.2810 H       1  UNL1        0.0480
     49  H          8.1650   13.7090    5.3900 H       1  UNL1        0.0480
     50  H          8.1420   15.7700    3.3650 H       1  UNL1        0.0281
     51  H          9.4450   14.7320    4.0330 H       1  UNL1        0.0281
     52  H         10.0240   16.2100    5.6090 H       1  UNL1        0.0287
     53  H          9.5010   17.3070    4.3340 H       1  UNL1        0.0287
     54  H          4.1920   14.3460   -1.6390 H       1  UNL1        0.0637
     55  H          2.5330   13.9520    0.1280 H       1  UNL1        0.0637
     56  H          5.5630   13.7000    2.9800 H       1  UNL1        0.0639
     57  C          9.9890   12.6910   -0.3090 C.ar    1  UNL1        0.0746
     58  C          8.9960   13.2860    0.4820 C.ar    1  UNL1       -0.0027
     59  C          8.9570   12.8410    1.8280 C.ar    1  UNL1       -0.0536
     60  C          9.7970   11.8600    2.3370 C.ar    1  UNL1       -0.0433
     61  C         10.6900   11.3000    1.4700 C.ar    1  UNL1        0.0280
     62  N         10.7940   11.6860    0.1870 N.ar    1  UNL1       -0.2569
     63  H          8.2650   13.2700    2.4650 H       1  UNL1        0.0622
     64  H          9.7480   11.5670    3.3250 H       1  UNL1        0.0633
     65  H         11.3100   10.5490    1.8130 H       1  UNL1        0.0829
     66  C         10.3010   13.0210   -1.7660 C.3     1  UNL1        0.0976
     67  H          9.3230   13.0410   -2.1980 H       1  UNL1        0.0659
     68  C         11.1740   11.9340   -2.4370 C.3     1  UNL1       -0.0331
     69  H         11.9600   11.6460   -1.7700 H       1  UNL1        0.0258
     70  H         11.5970   12.3220   -3.3390 H       1  UNL1        0.0258
     71  H         10.5690   11.0800   -2.6640 H       1  UNL1        0.0258
     72  O         10.8510   14.3170   -2.0430 O.3     1  UNL1       -0.3739
     73  C         12.0180   14.6670   -1.3160 C.3     1  UNL1        0.0373
     74  H         11.9770   15.7030   -1.0510 H       1  UNL1        0.0524
     75  H         12.8830   14.4880   -1.9210 H       1  UNL1        0.0524
     76  H         12.0760   14.0740   -0.4270 H       1  UNL1        0.0524
     77  C          4.6350   17.0340    1.3070 C.3     1  UNL1       -0.0567
     78  H          4.6160   16.0960    0.7910 H       1  UNL1        0.0236
     79  H          4.0720   17.7570    0.7540 H       1  UNL1        0.0236
     80  H          4.2060   16.9150    2.2800 H       1  UNL1        0.0236
     81  C          6.1140   18.6850    0.3880 C.3     1  UNL1       -0.0567
     82  H          5.2080   19.2490    0.4600 H       1  UNL1        0.0236
     83  H          6.2030   18.2750   -0.5960 H       1  UNL1        0.0236
     84  H          6.9490   19.3230    0.5860 H       1  UNL1        0.0236
     85  N          3.8150   14.9440    7.8830 N.am    1  UNL1       -0.3023
     86  C          4.3390   15.5240    9.0280 C.2     1  UNL1        0.2344
     87  O          5.5270   15.3400    9.3170 O.2     1  UNL1       -0.2737
     88  H          2.8520   15.0050    7.6880 H       1  UNL1        0.1495
     89  C          3.4680   16.5580    9.8450 C.3     1  UNL1        0.1042
     90  H          2.4680   16.1800    9.8630 H       1  UNL1        0.0599
     91  N          3.6540   16.6040   11.3190 N.am    1  UNL1       -0.2901
     92  C          3.2980   15.6390   12.2830 C.2     1  UNL1        0.2533
     93  O          3.6800   15.8160   13.4460 O.2     1  UNL1       -0.2721
     94  C          2.4280   14.3760   11.9640 C.3     1  UNL1        0.1896
     95  F          1.1540   14.7650   11.6270 F       1  UNL1       -0.2319
     96  C          2.2880   13.4970   13.2330 C.3     1  UNL1        0.0057
     97  C          3.5820   12.7630   13.5920 C.3     1  UNL1        0.0189
     98  N          4.1650   12.0840   12.4460 N.am    1  UNL1       -0.2907
     99  C          5.0510   11.0430   12.7140 C.2     1  UNL1        0.2910
    100  O          5.4880   10.7830   13.8310 O.2     1  UNL1       -0.2605
    101  C          4.2600   12.8360   11.2010 C.3     1  UNL1        0.0189
    102  C          2.9260   13.4610   10.8480 C.3     1  UNL1        0.0057
    103  H          1.5190   12.7720   13.0640 H       1  UNL1        0.0316
    104  H          2.0490   14.1460   14.0500 H       1  UNL1        0.0316
    105  H          3.3670   12.0370   14.3490 H       1  UNL1        0.0466
    106  H          4.2860   13.4900   13.9360 H       1  UNL1        0.0466
    107  H          4.5570   12.1750   10.4130 H       1  UNL1        0.0466
    108  H          4.9820   13.6150   11.3250 H       1  UNL1        0.0466
    109  H          3.0350   14.0330    9.9500 H       1  UNL1        0.0316
    110  H          2.2110   12.6760   10.7120 H       1  UNL1        0.0316
    111  C          5.3630   10.1410   11.6430 C.1     1  UNL1       -0.0092
    112  C          5.6300    9.4540   10.6820 C.1     1  UNL1       -0.1051
    113  C          5.9600    8.5940    9.5420 C.3     1  UNL1       -0.0075
    114  C          5.5270    7.2200    9.8880 C.3     1  UNL1       -0.0642
    115  H          5.8070    6.5490    9.1030 H       1  UNL1        0.0225
    116  H          4.4650    7.2000   10.0110 H       1  UNL1        0.0225
    117  H          5.9970    6.9170   10.8000 H       1  UNL1        0.0225
    118  C          7.4990    8.4420    9.4320 C.3     1  UNL1       -0.0642
    119  H          7.7450    7.9550    8.5110 H       1  UNL1        0.0225
    120  H          7.8590    7.8560   10.2520 H       1  UNL1        0.0225
    121  H          7.9560    9.4090    9.4560 H       1  UNL1        0.0225
    122  N          5.2620    8.9390    8.2940 N.4     1  UNL1        0.3867
    123  H          5.6470    8.3160    7.5840 H       1  UNL1       -0.0805
    124  C          5.5210   10.3220    7.9410 C.3     1  UNL1       -0.1016
    125  H          4.6880   10.7130    7.3960 H       1  UNL1        0.0024
    126  H          6.4020   10.3770    7.3370 H       1  UNL1        0.0024
    127  H          5.6640   10.8960    8.8330 H       1  UNL1        0.0024
    128  C          3.8130    8.6600    8.2950 C.3     1  UNL1       -0.1016
    129  H          3.3560    9.1390    7.4550 H       1  UNL1        0.0024
    130  H          3.3780    9.0320    9.2000 H       1  UNL1        0.0024
    131  H          3.6540    7.6030    8.2330 H       1  UNL1        0.0024
    132  C          4.3590   17.7580   11.8800 C.3     1  UNL1        0.0040
    133  H          4.9400   17.4460   12.7230 H       1  UNL1        0.0429
    134  H          3.6480   18.4940   12.1890 H       1  UNL1        0.0429
    135  H          5.0050   18.1770   11.1370 H       1  UNL1        0.0429
    136  C          3.4440   17.9350    9.0790 C.3     1  UNL1       -0.0195
    137  H          3.2560   18.6240    9.8760 H       1  UNL1        0.0318
    138  C          4.7790   18.2750    8.4160 C.3     1  UNL1       -0.0605
    139  H          5.1560   19.1920    8.8220 H       1  UNL1        0.0233
    140  H          4.6360   18.3860    7.3610 H       1  UNL1        0.0233
    141  H          5.4810   17.4890    8.6000 H       1  UNL1        0.0233
    142  C          2.2990   18.1410    8.0910 C.3     1  UNL1       -0.0605
    143  H          2.0930   19.1870    7.9970 H       1  UNL1        0.0233
    144  H          1.4250   17.6370    8.4470 H       1  UNL1        0.0233
    145  H          2.5750   17.7450    7.1360 H       1  UNL1        0.0233
    146  C          7.4130   15.1030   -2.1820 C.3     1  UNL1        0.0100
    147  H          7.0920   14.4440   -2.9620 H       1  UNL1        0.0461
    148  H          8.4650   15.2890   -2.1330 H       1  UNL1        0.0461
    149  C          6.8000   16.4650   -2.4610 C.3     1  UNL1       -0.0494
    150  H          5.7330   16.3850   -2.4530 H       1  UNL1        0.0245
    151  H          7.1240   16.8120   -3.4210 H       1  UNL1        0.0245
    152  H          7.1120   17.1580   -1.7070 H       1  UNL1        0.0245
    153 H           9.0589   14.7816   -0.1330 H       1  UNL1        0.0556
    154 H           7.6955   15.2923    2.0469 H       1  UNL1        0.0371
@<TRIPOS>BOND
     1     1    31    1
     2     1    58    1
     3     1     2    1
     4     1   153    1
     5     2     3    1
     6     2    25    1
     7     2   154    1
     8     3    32    1
     9     3     4    1
    10     3    33    1
    11     4    81    1
    12     4    77    1
    13     4     5    1
    14     5    35    1
    15     5    34    1
    16     5     6    1
    17     6     7    1
    18     7    24    2
    19     7     8    1
    20     8    23    1
    21     8    36    1
    22     8     9    1
    23     9    10    1
    24     9    37    1
    25    10    21    1
    26    10    11   am
    27    11    20    2
    28    11    12    1
    29    12    13    1
    30    12    38    1
    31    12    85    1
    32    13    40    1
    33    13    14    1
    34    13    39    1
    35    14    15    1
    36    14    19    1
    37    14    41    1
    38    15    16    1
    39    15    43    1
    40    15    42    1
    41    16    29    1
    42    16    17    1
    43    17    44    1
    44    17    45    1
    45    17    18    1
    46    18    47    1
    47    18    46    1
    48    18    19    1
    49    21    22    1
    50    21    48    1
    51    21    49    1
    52    22    50    1
    53    22    51    1
    54    22    23    1
    55    23    53    1
    56    23    52    1
    57    25    26   ar
    58    25    30   ar
    59    26    31    1
    60    26    27   ar
    61    27    54    1
    62    27    28   ar
    63    28    55    1
    64    28    29   ar
    65    29    30   ar
    66    30    56    1
    67    31   146    1
    68    57    66    1
    69    57    62   ar
    70    57    58   ar
    71    58    59   ar
    72    59    60   ar
    73    59    63    1
    74    60    61   ar
    75    60    64    1
    76    61    62   ar
    77    61    65    1
    78    66    68    1
    79    66    67    1
    80    66    72    1
    81    68    70    1
    82    68    71    1
    83    68    69    1
    84    72    73    1
    85    73    75    1
    86    73    74    1
    87    73    76    1
    88    77    79    1
    89    77    78    1
    90    77    80    1
    91    81    83    1
    92    81    82    1
    93    81    84    1
    94    85    88    1
    95    85    86   am
    96    86    87    2
    97    86    89    1
    98    89   136    1
    99    89    90    1
   100    89    91    1
   101    91   132    1
   102    91    92   am
   103    92    94    1
   104    92    93    2
   105    94   102    1
   106    94    95    1
   107    94    96    1
   108    96   103    1
   109    96    97    1
   110    96   104    1
   111    97    98    1
   112    97   106    1
   113    97   105    1
   114    98   101    1
   115    98    99   am
   116    99   111    1
   117    99   100    2
   118   101   107    1
   119   101   102    1
   120   101   108    1
   121   102   109    1
   122   102   110    1
   123   111   112    3
   124   112   113    1
   125   113   122    1
   126   113   118    1
   127   113   114    1
   128   114   115    1
   129   114   116    1
   130   114   117    1
   131   118   119    1
   132   118   121    1
   133   118   120    1
   134   122   123    1
   135   122   124    1
   136   122   128    1
   137   124   126    1
   138   124   125    1
   139   124   127    1
   140   128   129    1
   141   128   131    1
   142   128   130    1
   143   132   135    1
   144   132   134    1
   145   132   133    1
   146   136   142    1
   147   136   138    1
   148   136   137    1
   149   138   140    1
   150   138   141    1
   151   138   139    1
   152   142   145    1
   153   142   143    1
   154   142   144    1
   155   146   147    1
   156   146   149    1
   157   146   148    1
   158   149   151    1
   159   149   150    1
   160   149   152    1
