@<TRIPOS>MOLECULE
UNL
 62 63 0 0 0
SMALL
GASTEIGER

@<TRIPOS>ATOM
      1  C          9.6400   13.3320    3.3620 C.ar    1  UNL1        0.0398
      2  C          9.8370   11.9910    3.7400 C.ar    1  UNL1        0.1330
      3  F         10.5480   11.1730    2.9460 F       1  UNL1       -0.2048
      4  C          9.3700   11.4380    4.9420 C.ar    1  UNL1       -0.0179
      5  C          8.7840   12.2300    5.9410 C.ar    1  UNL1        0.0122
      6  C          8.6520   13.6450    5.6050 C.ar    1  UNL1        0.1439
      7  O          8.2540   14.6900    6.5090 O.3     1  UNL1       -0.4904
      8  C          7.8770   13.9750    7.6120 C.3     1  UNL1        0.0869
      9  C          7.1500   14.0600    8.8870 C.3     1  UNL1       -0.0307
     10  C          6.8060   12.5120    9.1250 C.3     1  UNL1       -0.0776
     11  C          5.2900   12.4660    9.5370 C.3     1  UNL1        0.0035
     12  N          4.4600   11.7930    8.5440 N.am    1  UNL1       -0.2999
     13  C          3.6990   12.3600    7.5320 C.2     1  UNL1        0.2387
     14  O          3.1810   11.6740    6.6500 O.2     1  UNL1       -0.2707
     15  C          4.9300   10.4410    8.3060 C.3     1  UNL1        0.0272
     16  C          6.2600   10.5170    7.5450 C.3     1  UNL1        0.0120
     17  N          7.2450   11.4700    8.0820 N.3     1  UNL1       -0.3104
     18  C          8.5450   11.4620    7.3310 C.3     1  UNL1        0.0249
     19  C          8.9650   14.1370    4.3090 C.ar    1  UNL1        0.0933
     20 CL          8.4550   15.7590    3.9020 Cl      1  UNL1       -0.0790
     21  H          9.4600   10.4210    5.0960 H       1  UNL1        0.0651
     22  H          8.8320   13.6350    7.9570 H       1  UNL1        0.0694
     23  H          6.9980   13.6270    7.1110 H       1  UNL1        0.0694
     24  H          6.2640   14.6530    8.8000 H       1  UNL1        0.0262
     25  H          7.6930   14.5260    9.6830 H       1  UNL1        0.0262
     26  H          7.4470   12.1540    9.9020 H       1  UNL1        0.0194
     27  H          4.9370   13.4700    9.6560 H       1  UNL1        0.0429
     28  H          5.2180   11.9130   10.4500 H       1  UNL1        0.0429
     29  H          4.2090    9.9060    7.7220 H       1  UNL1        0.0477
     30  H          5.0660    9.9300    9.2360 H       1  UNL1        0.0477
     31  H          6.0460   10.7990    6.5350 H       1  UNL1        0.0439
     32  H          6.7060    9.5490    7.6390 H       1  UNL1        0.0439
     33  H          7.6800   11.3470    8.9960 H       1  UNL1        0.1223
     34  H          9.2740   11.8540    8.0080 H       1  UNL1        0.0475
     35  H          8.5900   10.4410    7.0110 H       1  UNL1        0.0475
     36  C          8.0540   13.7750   -0.9290 C.ar    1  UNL1        0.0817
     37  S          9.4910   14.1820   -1.7340 S.2     1  UNL1       -0.0699
     38  C          8.2140   13.8340    0.4430 C.ar    1  UNL1        0.0880
     39  C          9.6030   13.9810    0.8580 C.ar    1  UNL1        0.0190
     40  C         10.3810   14.3020   -0.2680 C.ar    1  UNL1        0.0581
     41  C         11.7370   14.6470   -0.1740 C.ar    1  UNL1        0.1377
     42  F         12.4440   14.9840   -1.2660 F       1  UNL1       -0.2043
     43  C         12.3740   14.6140    1.0500 C.ar    1  UNL1       -0.0247
     44  C         11.6670   14.1930    2.1650 C.ar    1  UNL1       -0.0505
     45  C         10.2810   13.8810    2.1290 C.ar    1  UNL1       -0.0039
     46  H         13.3630   14.8970    1.1330 H       1  UNL1        0.0647
     47  H         12.1700   14.1050    3.0620 H       1  UNL1        0.0625
     48  N          6.9480   13.4710   -1.6500 N.pl3   1  UNL1       -0.3516
     49  H          7.0330   12.9770   -2.4960 H       1  UNL1        0.1428
     50  H          6.0590   13.7450   -1.3260 H       1  UNL1        0.1428
     51  C          7.0860   13.7180    1.3180 C.1     1  UNL1        0.1022
     52  N          6.1790   13.6140    2.0400 N.1     1  UNL1       -0.1908
     53  C          3.5280   13.8390    7.5010 C.2     1  UNL1       -0.0068
     54  C          4.2180   14.5690    6.6120 C.2     1  UNL1       -0.0938
     55  H          2.8810   14.3000    8.1600 H       1  UNL1        0.0663
     56  H          4.8650   14.1050    5.9540 H       1  UNL1        0.0536
     57  H          4.1030   15.5940    6.5870 H       1  UNL1        0.0536
     58 H           6.9585   13.0318    9.1131 H       1  UNL1        0.0262
     59 H           5.7850   12.3596    9.4064 H       1  UNL1        0.0194
     60 H           7.0100   11.9785    8.2202 H       1  UNL1        0.0194
     61 H           6.9814   13.5562    8.9707 H       1  UNL1        0.0194
     62 H           6.3158   12.5092    9.2356 H       1  UNL1        0.0429
@<TRIPOS>BOND
     1     1    45    1
     2     1     2   ar
     3     1    19   ar
     4     2     3    1
     5     2     4   ar
     6     4    21    1
     7     4     5   ar
     8     5     6   ar
     9     5    18    1
    10     6    19   ar
    11     6     7    1
    12     7     8    1
    13     8    23    1
    14     8    22    1
    15     8     9    1
    16     9    24    1
    17     9    25    1
    18     9    58    1
    19    10    26    1
    20    10    59    1
    21    10    60    1
    22    10    61    1
    23    11    12    1
    24    11    27    1
    25    11    28    1
    26    11    62    1
    27    12    13   am
    28    12    15    1
    29    13    14    2
    30    13    53    1
    31    15    16    1
    32    15    29    1
    33    15    30    1
    34    16    31    1
    35    16    32    1
    36    16    17    1
    37    17    18    1
    38    17    33    1
    39    18    35    1
    40    18    34    1
    41    19    20    1
    42    36    37   ar
    43    36    48    1
    44    36    38   ar
    45    37    40   ar
    46    38    39   ar
    47    38    51    1
    48    39    40   ar
    49    39    45   ar
    50    40    41   ar
    51    41    42    1
    52    41    43   ar
    53    43    46    1
    54    43    44   ar
    55    44    45   ar
    56    44    47    1
    57    48    49    1
    58    48    50    1
    59    51    52    3
    60    53    54    2
    61    53    55    1
    62    54    56    1
    63    54    57    1
