@<TRIPOS>MOLECULE
UNL
 77 81 0 0 0
SMALL
GASTEIGER

@<TRIPOS>ATOM
      1  C         10.7570   12.6910    2.2340 C.ar    1  UNL1        0.0566
      2  C          9.4360   12.2190    2.2100 C.ar    1  UNL1        0.1604
      3  F          9.2240   10.9590    2.6270 F       1  UNL1       -0.2025
      4  C          8.3700   13.0770    2.4760 C.ar    1  UNL1        0.1196
      5  N          7.5110   13.6550    1.5910 N.2     1  UNL1       -0.1619
      6  C          6.7040   14.5970    2.1130 C.1     1  UNL1        0.1916
      7  N          6.5080   14.7570    3.4230 N.2     1  UNL1       -0.1783
      8  C          7.3700   14.1300    4.2100 C.3     1  UNL1        0.1442
      9  N          6.9640   13.6780    5.4620 N.3     1  UNL1       -0.2710
     10  C          7.8120   12.8110    6.3130 C.3     1  UNL1        0.0256
     11  C          7.1300   11.4490    6.6120 C.3     1  UNL1        0.0304
     12  N          5.7420   11.6000    7.0530 N.am    1  UNL1       -0.2953
     13  C          5.3930   11.1430    8.3160 C.2     1  UNL1        0.2390
     14  O          6.2040   10.6350    9.0780 O.2     1  UNL1       -0.2706
     15  C          4.9250   12.3540    6.0890 C.3     1  UNL1        0.0279
     16  C          5.5270   13.7490    5.8000 C.3     1  UNL1        0.0173
     17  C          8.5590   13.7340    3.6350 C.ar    1  UNL1        0.0226
     18  C          9.7630   14.4590    3.5930 C.ar    1  UNL1       -0.0340
     19  C         10.8090   14.0060    2.7650 C.ar    1  UNL1        0.0534
     20 CL         12.0210   15.1930    2.4080 Cl      1  UNL1       -0.0828
     21  H          8.7170   12.5800    5.7900 H       1  UNL1        0.0476
     22  H          7.6820   10.9510    7.3820 H       1  UNL1        0.0480
     23  H          7.1230   10.8830    5.7040 H       1  UNL1        0.0480
     24  H          3.9410   12.4770    6.4890 H       1  UNL1        0.0477
     25  H          4.8990   11.8050    5.1710 H       1  UNL1        0.0477
     26  H          5.0010   14.1890    4.9790 H       1  UNL1        0.0443
     27  H          5.4270   14.3400    6.6870 H       1  UNL1        0.0443
     28  H          9.8780   15.3120    4.1620 H       1  UNL1        0.0637
     29  C         13.3480   10.1960    2.8240 C.ar    1  UNL1        0.1171
     30  C         14.1510   10.1130    1.7200 C.ar    1  UNL1       -0.0186
     31  C         13.8640   10.9280    0.6250 C.ar    1  UNL1       -0.0335
     32  C         12.7700   11.8490    0.6800 C.ar    1  UNL1        0.0839
     33  C         11.9890   11.8810    1.8640 C.ar    1  UNL1        0.0892
     34  N         12.3140   11.0390    2.8790 N.ar    1  UNL1       -0.2317
     35  H         14.9530    9.4640    1.6980 H       1  UNL1        0.0654
     36  C         14.7650   10.7640   -0.5810 C.3     1  UNL1       -0.0390
     37  H         15.7480   11.1100   -0.3410 H       1  UNL1        0.0278
     38  H         14.3740   11.3340   -1.3970 H       1  UNL1        0.0278
     39  H         14.8070    9.7300   -0.8550 H       1  UNL1        0.0278
     40  C         12.4720   12.6840   -0.5450 C.3     1  UNL1        0.4196
     41  F         11.3640   13.4770   -0.4520 F       1  UNL1       -0.1658
     42  F         13.4810   13.5590   -0.8230 F       1  UNL1       -0.1658
     43  F         12.2280   11.9470   -1.6610 F       1  UNL1       -0.1658
     44  N         13.5990    9.4370    3.9580 N.pl3   1  UNL1       -0.3431
     45  H         12.8520    9.0470    4.4660 H       1  UNL1        0.1437
     46  H         14.5260    9.2870    4.2560 H       1  UNL1        0.1437
     47  C          3.9680   11.2810    8.7370 C.2     1  UNL1       -0.0067
     48  C          3.6260   12.1430    9.7040 C.2     1  UNL1       -0.0938
     49  H          3.2400   10.7100    8.2800 H       1  UNL1        0.0663
     50  H          4.3510   12.7160   10.1650 H       1  UNL1        0.0536
     51  H          2.6390   12.2330    9.9910 H       1  UNL1        0.0536
     52  C          8.1370   13.5680    7.6000 C.3     1  UNL1       -0.0479
     53  H          8.7380   12.9520    8.2340 H       1  UNL1        0.0245
     54  H          7.2280   13.8220    8.1040 H       1  UNL1        0.0245
     55  H          8.6720   14.4640    7.3610 H       1  UNL1        0.0245
     56  O          6.2780   15.6740    1.3820 O.2     1  UNL1       -0.4337
     57  C          7.2330   16.3610    0.5950 C.3     1  UNL1        0.0909
     58  H          8.1740   15.8570    0.6700 H       1  UNL1        0.0691
     59  H          7.3170   17.3640    0.9570 H       1  UNL1        0.0691
     60  C          6.7930   16.4050   -0.8990 C.3     1  UNL1       -0.0425
     61  N          7.5880   15.6950   -1.9200 N.4     1  UNL1        0.3819
     62  C          7.1590   14.2970   -1.9150 C.3     1  UNL1       -0.0905
     63  C          5.6610   14.3780   -1.6720 C.3     1  UNL1       -0.0694
     64  C          5.4110   15.7770   -1.1200 C.3     1  UNL1       -0.0638
     65  H          6.8850   17.4610   -1.0410 H       1  UNL1        0.0127
     66  H          7.3980   16.1350   -2.8200 H       1  UNL1       -0.0817
     67  H          7.6440   13.7530   -1.1310 H       1  UNL1        0.0059
     68  H          7.4040   13.7870   -2.8230 H       1  UNL1        0.0059
     69  H          5.3570   13.6370   -0.9640 H       1  UNL1        0.0247
     70  H          5.1050   14.2000   -2.5690 H       1  UNL1        0.0247
     71  H          4.8490   16.3580   -1.8210 H       1  UNL1        0.0250
     72  H          4.8500   15.7430   -0.2100 H       1  UNL1        0.0250
     73  C          9.0270   15.8400   -1.8170 C.3     1  UNL1       -0.1027
     74  H          9.2880   16.8750   -1.8950 H       1  UNL1        0.0024
     75  H          9.4980   15.2930   -2.6070 H       1  UNL1        0.0024
     76  H          9.3570   15.4590   -0.8730 H       1  UNL1        0.0024
     77 H           7.8088   14.8912    4.8207 H       1  UNL1        0.0776
@<TRIPOS>BOND
     1     1    33    1
     2     1     2   ar
     3     1    19   ar
     4     2     4   ar
     5     2     3    1
     6     4     5    1
     7     4    17   ar
     8     5     6    2
     9     6    56    1
    10     6     7    2
    11     7     8    1
    12     8    17    1
    13     8     9    1
    14     8    77    1
    15     9    16    1
    16     9    10    1
    17    10    21    1
    18    10    11    1
    19    10    52    1
    20    11    23    1
    21    11    12    1
    22    11    22    1
    23    12    15    1
    24    12    13   am
    25    13    47    1
    26    13    14    2
    27    15    25    1
    28    15    16    1
    29    15    24    1
    30    16    26    1
    31    16    27    1
    32    17    18   ar
    33    18    19   ar
    34    18    28    1
    35    19    20    1
    36    29    30   ar
    37    29    34   ar
    38    29    44    1
    39    30    31   ar
    40    30    35    1
    41    31    36    1
    42    31    32   ar
    43    32    40    1
    44    32    33   ar
    45    33    34   ar
    46    36    38    1
    47    36    39    1
    48    36    37    1
    49    40    43    1
    50    40    42    1
    51    40    41    1
    52    44    46    1
    53    44    45    1
    54    47    49    1
    55    47    48    2
    56    48    51    1
    57    48    50    1
    58    52    55    1
    59    52    54    1
    60    52    53    1
    61    56    57    1
    62    57    60    1
    63    57    58    1
    64    57    59    1
    65    60    61    1
    66    60    64    1
    67    60    65    1
    68    61    66    1
    69    61    62    1
    70    61    73    1
    71    62    68    1
    72    62    63    1
    73    62    67    1
    74    63    70    1
    75    63    64    1
    76    63    69    1
    77    64    71    1
    78    64    72    1
    79    73    75    1
    80    73    74    1
    81    73    76    1
