@<TRIPOS>MOLECULE
UNL
 47 50 0 0 0
SMALL
GASTEIGER

@<TRIPOS>ATOM
      1  C         10.8050   12.5890    2.8560 C.ar    1  UNL1        0.0000
      2  C         10.7270   11.6960    3.9420 C.ar    1  UNL1        0.0000
      3  F         11.5740   10.6470    3.9550 F       1  UNL1        0.0000
      4  C          9.8740   11.8630    5.0430 C.ar    1  UNL1        0.0000
      5  N          9.9130   11.0080    6.0760 N.ar    1  UNL1        0.0000
      6  C          9.1060   11.2670    7.1110 C.ar    1  UNL1        0.0000
      7  N          8.2390   12.2810    7.2000 N.ar    1  UNL1        0.0000
      8  C          8.1820   13.1250    6.1570 C.ar    1  UNL1        0.0000
      9  N          7.3580   14.2400    6.2510 N.pl3   1  UNL1        0.0000
     10  C          6.2150   14.3510    5.3260 C.3     1  UNL1        0.0000
     11  C          5.9060   15.8530    5.1540 C.3     1  UNL1        0.0000
     12  N          5.7200   16.5520    6.4410 N.am    1  UNL1        0.0000
     13  C          4.9370   17.6960    6.4100 C.2     1  UNL1        0.0000
     14  O          4.2990   18.0260    5.4100 O.2     1  UNL1        0.0000
     15  C          6.7180   16.2290    7.4820 C.3     1  UNL1        0.0000
     16  C          7.0140   14.7180    7.5910 C.3     1  UNL1        0.0000
     17  C          9.0250   12.9730    5.0380 C.ar    1  UNL1        0.0000
     18  C          9.1130   13.9040    3.9800 C.ar    1  UNL1        0.0000
     19  C          9.9850   13.7210    2.9110 C.ar    1  UNL1        0.0000
     20 CL         10.0350   14.9900    1.7330 Cl      1  UNL1        0.0000
     21  H          9.1570   10.6240    7.9160 H       1  UNL1        0.0000
     22  H          5.3640   13.8470    5.7340 H       1  UNL1        0.0000
     23  H          6.4470   13.9030    4.3830 H       1  UNL1        0.0000
     24  H          5.0090   15.9530    4.5800 H       1  UNL1        0.0000
     25  H          6.7450   16.3000    4.6640 H       1  UNL1        0.0000
     26  H          6.3480   16.5720    8.4260 H       1  UNL1        0.0000
     27  H          7.6320   16.7140    7.2100 H       1  UNL1        0.0000
     28  H          7.8340   14.5540    8.2590 H       1  UNL1        0.0000
     29  H          6.1630   14.1940    7.9720 H       1  UNL1        0.0000
     30  H          8.5140   14.7440    4.0000 H       1  UNL1        0.0000
     31  F         10.3460   10.6230    0.8800 F       1  UNL1        0.0000
     32  C         11.4340   11.4000    0.7480 C.ar    1  UNL1        0.0000
     33  C         11.7420   12.3490    1.7390 C.ar    1  UNL1        0.0000
     34  C         12.9270   13.0840    1.5610 C.ar    1  UNL1        0.0000
     35  C         13.7120   12.9370    0.4160 C.ar    1  UNL1        0.0000
     36  C         13.3500   12.0220   -0.5700 C.ar    1  UNL1        0.0000
     37  C         12.2130   11.2400   -0.3970 C.ar    1  UNL1        0.0000
     38  H         14.5630   13.5090    0.3000 H       1  UNL1        0.0000
     39  H         13.9230   11.9250   -1.4240 H       1  UNL1        0.0000
     40  H         11.9480   10.5460   -1.1120 H       1  UNL1        0.0000
     41  O         13.3740   13.9950    2.4800 O.3     1  UNL1        0.0000
     42  H         12.7880   14.3310    3.1310 H       1  UNL1        0.0000
     43  C          4.8590   18.5310    7.6450 C.2     1  UNL1        0.0000
     44  C          5.4300   19.7410    7.6720 C.2     1  UNL1        0.0000
     45  H          4.3650   18.1750    8.4780 H       1  UNL1        0.0000
     46  H          5.9240   20.0960    6.8380 H       1  UNL1        0.0000
     47  H          5.3760   20.3190    8.5250 H       1  UNL1        0.0000
@<TRIPOS>BOND
     1     1    33    1
     2     1    19   ar
     3     1     2   ar
     4     2     3    1
     5     2     4   ar
     6     4    17   ar
     7     4     5   ar
     8     5     6   ar
     9     6     7   ar
    10     6    21    1
    11     7     8   ar
    12     8    17   ar
    13     8     9    1
    14     9    10    1
    15     9    16    1
    16    10    23    1
    17    10    11    1
    18    10    22    1
    19    11    24    1
    20    11    25    1
    21    11    12    1
    22    12    13   am
    23    12    15    1
    24    13    14    2
    25    13    43    1
    26    15    27    1
    27    15    16    1
    28    15    26    1
    29    16    29    1
    30    16    28    1
    31    17    18   ar
    32    18    19   ar
    33    18    30    1
    34    19    20    1
    35    31    32    1
    36    32    37   ar
    37    32    33   ar
    38    33    34   ar
    39    34    35   ar
    40    34    41    1
    41    35    36   ar
    42    35    38    1
    43    36    39    1
    44    36    37   ar
    45    37    40    1
    46    41    42    1
    47    43    44    2
    48    43    45    1
    49    44    46    1
    50    44    47    1
