@<TRIPOS>MOLECULE
UNL
 130 136 0 0 0
SMALL
GASTEIGER

@<TRIPOS>ATOM
      1  C         10.4130   12.2330    2.4960 C.ar    1  UNL1        0.0000
      2  C          9.5640   13.1620    1.8530 C.ar    1  UNL1        0.0000
      3  C          9.3560   14.1240    2.8940 C.ar    1  UNL1        0.0000
      4  C          9.3050   13.3900    4.0790 C.ar    1  UNL1        0.0000
      5  N          9.9400   12.1950    3.8100 N.ar    1  UNL1        0.0000
      6  C          8.7960   13.9080    5.2790 C.ar    1  UNL1        0.0000
      7  C          8.5800   15.2820    5.3490 C.ar    1  UNL1        0.0000
      8  C          8.8610   16.1020    4.2590 C.ar    1  UNL1        0.0000
      9  C          9.1900   15.5110    3.0210 C.ar    1  UNL1        0.0000
     10  C          9.1170   13.0440    0.4070 C.3     1  UNL1        0.0000
     11  C          8.3040   14.0580   -0.4660 C.3     1  UNL1        0.0000
     12  C          6.7500   13.8220   -0.4630 C.3     1  UNL1        0.0000
     13  O          6.0820   14.4680    0.6280 O.3     1  UNL1        0.0000
     14  C          4.7290   14.3610    0.7270 C.2     1  UNL1        0.0000
     15  C          3.8430   15.2850   -0.1640 C.3     1  UNL1        0.0000
     16  N          3.1870   16.3640    0.6350 N.3     1  UNL1        0.0000
     17  N          4.0390   17.5120    0.9010 N.am    1  UNL1        0.0000
     18  C          4.6500   18.1190   -0.2880 C.3     1  UNL1        0.0000
     19  C          5.3060   17.0640   -1.1870 C.3     1  UNL1        0.0000
     20  C          4.3510   15.9080   -1.4580 C.3     1  UNL1        0.0000
     21  C          4.7060   17.4690    2.1260 C.2     1  UNL1        0.0000
     22  C          4.6810   18.7410    3.0160 C.3     1  UNL1        0.0000
     23  C          5.8740   19.7250    2.8690 C.3     1  UNL1        0.0000
     24  C          7.1400   19.3440    3.6080 C.ar    1  UNL1        0.0000
     25  C          7.5950   18.0350    3.5290 C.ar    1  UNL1        0.0000
     26  C          8.6290   17.5430    4.3240 C.ar    1  UNL1        0.0000
     27  C          9.3250   18.4340    5.1390 C.ar    1  UNL1        0.0000
     28  C          8.9600   19.7860    5.1530 C.ar    1  UNL1        0.0000
     29  C          7.8620   20.2350    4.4050 C.ar    1  UNL1        0.0000
     30  O          5.0960   16.3930    2.5880 O.2     1  UNL1        0.0000
     31  O          4.2130   13.6650    1.6050 O.2     1  UNL1        0.0000
     32  H          8.5870   13.2930    6.0800 H       1  UNL1        0.0000
     33  H          8.2080   15.6950    6.2180 H       1  UNL1        0.0000
     34  H          9.3110   16.1120    2.1910 H       1  UNL1        0.0000
     35  H          8.5340   12.1480    0.3820 H       1  UNL1        0.0000
     36  H         10.0710   13.1850   -0.0540 H       1  UNL1        0.0000
     37  H          6.5660   12.7700   -0.3990 H       1  UNL1        0.0000
     38  H          6.3630   14.2430   -1.3670 H       1  UNL1        0.0000
     39  H          3.1860   14.5220   -0.5270 H       1  UNL1        0.0000
     40  H          2.8970   15.9670    1.5300 H       1  UNL1        0.0000
     41  H          5.3960   18.8200    0.0250 H       1  UNL1        0.0000
     42  H          3.8800   18.6040   -0.8490 H       1  UNL1        0.0000
     43  H          6.1830   16.6870   -0.7030 H       1  UNL1        0.0000
     44  H          5.5600   17.5220   -2.1200 H       1  UNL1        0.0000
     45  H          3.5160   16.2700   -2.0210 H       1  UNL1        0.0000
     46  H          4.8810   15.1560   -2.0060 H       1  UNL1        0.0000
     47  H          3.8780   19.3780    2.7110 H       1  UNL1        0.0000
     48  H          5.5570   20.6800    3.2330 H       1  UNL1        0.0000
     49  H          6.1310   19.7150    1.8310 H       1  UNL1        0.0000
     50  H          7.1480   17.3970    2.8530 H       1  UNL1        0.0000
     51  H         10.1030   18.1000    5.7290 H       1  UNL1        0.0000
     52  H          9.5040   20.4570    5.7190 H       1  UNL1        0.0000
     53  H          7.5870   21.2290    4.4420 H       1  UNL1        0.0000
     54  C         12.7940   12.4430    1.4580 C.ar    1  UNL1        0.0000
     55  C         11.8000   11.7860    2.1920 C.ar    1  UNL1        0.0000
     56  C         12.0870   10.4510    2.5720 C.ar    1  UNL1        0.0000
     57  C         13.2120    9.7780    2.1110 C.ar    1  UNL1        0.0000
     58  C         14.0620   10.4660    1.2840 C.ar    1  UNL1        0.0000
     59  N         13.8920   11.7670    0.9750 N.ar    1  UNL1        0.0000
     60  H         11.4410    9.9630    3.2110 H       1  UNL1        0.0000
     61  H         13.4000    8.8000    2.3810 H       1  UNL1        0.0000
     62  H         14.8690    9.9650    0.8800 H       1  UNL1        0.0000
     63  C         12.9310   13.9410    1.2440 C.3     1  UNL1        0.0000
     64  H         11.9230   14.2660    1.0950 H       1  UNL1        0.0000
     65  C         13.8940   14.1520    0.0660 C.3     1  UNL1        0.0000
     66  H         13.7990   15.1550   -0.2950 H       1  UNL1        0.0000
     67  H         13.6540   13.4670   -0.7190 H       1  UNL1        0.0000
     68  H         14.8990   13.9830    0.3920 H       1  UNL1        0.0000
     69  O         13.3920   14.7540    2.3190 O.3     1  UNL1        0.0000
     70  C         12.7740   16.0300    2.3620 C.3     1  UNL1        0.0000
     71  H         12.7470   16.3790    3.3730 H       1  UNL1        0.0000
     72  H         11.7760   15.9540    1.9830 H       1  UNL1        0.0000
     73  H         13.3320   16.7160    1.7610 H       1  UNL1        0.0000
     74  C          8.7350   13.7850   -1.9450 C.3     1  UNL1        0.0000
     75  H          8.4170   14.5960   -2.5650 H       1  UNL1        0.0000
     76  H          8.2840   12.8770   -2.2870 H       1  UNL1        0.0000
     77  H          9.8000   13.6950   -1.9950 H       1  UNL1        0.0000
     78  C          8.6260   15.5220   -0.1860 C.3     1  UNL1        0.0000
     79  H          9.6200   15.5990    0.2040 H       1  UNL1        0.0000
     80  H          7.9310   15.9100    0.5280 H       1  UNL1        0.0000
     81  H          8.5550   16.0830   -1.0950 H       1  UNL1        0.0000
     82  N          4.5360   18.2130    4.3860 N.am    1  UNL1        0.0000
     83  C          3.4430   18.3760    5.1850 C.2     1  UNL1        0.0000
     84  O          2.4220   18.9610    4.7890 O.2     1  UNL1        0.0000
     85  H          5.2910   17.6990    4.7550 H       1  UNL1        0.0000
     86  C          3.5030   17.7110    6.5870 C.3     1  UNL1        0.0000
     87  H          2.6800   18.0140    7.1980 H       1  UNL1        0.0000
     88  N          3.3210   16.2370    6.4300 N.am    1  UNL1        0.0000
     89  C          4.4210   15.4330    6.1240 C.2     1  UNL1        0.0000
     90  O          5.5440   15.9460    6.0820 O.2     1  UNL1        0.0000
     91  C          4.3010   13.8860    6.0140 C.3     1  UNL1        0.0000
     92  C          5.2850   13.0740    5.1620 C.3     1  UNL1        0.0000
     93  C          5.6570   11.8270    5.9380 C.3     1  UNL1        0.0000
     94  N          5.3810   12.1650    7.3190 N.am    1  UNL1        0.0000
     95  C          4.4230   13.2510    7.4180 C.3     1  UNL1        0.0000
     96  C          5.9210   11.4020    8.3250 C.2     1  UNL1        0.0000
     97  O          6.7380   10.5030    8.1170 O.2     1  UNL1        0.0000
     98  H          3.3580   13.8220    5.5130 H       1  UNL1        0.0000
     99  H          6.1630   13.6560    4.9670 H       1  UNL1        0.0000
    100  H          4.8380   12.8110    4.2260 H       1  UNL1        0.0000
    101  H          6.6920   11.5930    5.8050 H       1  UNL1        0.0000
    102  H          5.1090   10.9670    5.6120 H       1  UNL1        0.0000
    103  H          3.4720   12.8740    7.7330 H       1  UNL1        0.0000
    104  H          4.7460   13.9770    8.1350 H       1  UNL1        0.0000
    105  C          5.4670   11.7050    9.7060 C.2     1  UNL1        0.0000
    106  C          6.2900   12.2810   10.5910 C.2     1  UNL1        0.0000
    107  H          4.5020   11.4690    9.9880 H       1  UNL1        0.0000
    108  H          7.2560   12.5200   10.3180 H       1  UNL1        0.0000
    109  H          5.9580   12.4850   11.5470 H       1  UNL1        0.0000
    110  C          1.9750   15.8700    6.0210 C.3     1  UNL1        0.0000
    111  H          1.2640   16.4540    6.5680 H       1  UNL1        0.0000
    112  H          1.8120   14.8310    6.2220 H       1  UNL1        0.0000
    113  H          1.8570   16.0530    4.9740 H       1  UNL1        0.0000
    114  C          4.6570   18.2480    7.4830 C.3     1  UNL1        0.0000
    115  H          5.5300   17.7040    7.1880 H       1  UNL1        0.0000
    116  C          4.4550   18.0160    8.9850 C.3     1  UNL1        0.0000
    117  H          5.0420   17.1770    9.2980 H       1  UNL1        0.0000
    118  H          3.4210   17.8220    9.1800 H       1  UNL1        0.0000
    119  H          4.7630   18.8870    9.5260 H       1  UNL1        0.0000
    120  C          4.7860   19.7700    7.2730 C.3     1  UNL1        0.0000
    121  H          5.7990   20.0120    7.0260 H       1  UNL1        0.0000
    122  H          4.5060   20.2800    8.1710 H       1  UNL1        0.0000
    123  H          4.1420   20.0760    6.4740 H       1  UNL1        0.0000
    124  C         10.3990   11.3040    4.8700 C.3     1  UNL1        0.0000
    125  H         11.1970   11.7860    5.3960 H       1  UNL1        0.0000
    126  H         10.7120   10.3940    4.4050 H       1  UNL1        0.0000
    127  C          9.3160   10.9480    5.8650 C.3     1  UNL1        0.0000
    128  H          9.6140   11.2590    6.8440 H       1  UNL1        0.0000
    129  H          9.1620    9.8890    5.8590 H       1  UNL1        0.0000
    130  H          8.4070   11.4420    5.5950 H       1  UNL1        0.0000
@<TRIPOS>BOND
     1     1     2   ar
     2     1    55    1
     3     1     5   ar
     4     2    10    1
     5     2     3   ar
     6     3     9   ar
     7     3     4   ar
     8     4     5   ar
     9     4     6   ar
    10     5   124    1
    11     6     7   ar
    12     6    32    1
    13     7     8   ar
    14     7    33    1
    15     8     9   ar
    16     8    26    1
    17     9    34    1
    18    10    11    1
    19    10    36    1
    20    10    35    1
    21    11    74    1
    22    11    12    1
    23    11    78    1
    24    12    38    1
    25    12    37    1
    26    12    13    1
    27    13    14    1
    28    14    15    1
    29    14    31    2
    30    15    20    1
    31    15    39    1
    32    15    16    1
    33    16    17    1
    34    16    40    1
    35    17    18    1
    36    17    21   am
    37    18    19    1
    38    18    42    1
    39    18    41    1
    40    19    44    1
    41    19    20    1
    42    19    43    1
    43    20    45    1
    44    20    46    1
    45    21    30    2
    46    21    22    1
    47    22    47    1
    48    22    23    1
    49    22    82    1
    50    23    49    1
    51    23    48    1
    52    23    24    1
    53    24    25   ar
    54    24    29   ar
    55    25    50    1
    56    25    26   ar
    57    26    27   ar
    58    27    28   ar
    59    27    51    1
    60    28    29   ar
    61    28    52    1
    62    29    53    1
    63    54    59   ar
    64    54    63    1
    65    54    55   ar
    66    55    56   ar
    67    56    57   ar
    68    56    60    1
    69    57    58   ar
    70    57    61    1
    71    58    62    1
    72    58    59   ar
    73    63    65    1
    74    63    64    1
    75    63    69    1
    76    65    67    1
    77    65    66    1
    78    65    68    1
    79    69    70    1
    80    70    73    1
    81    70    72    1
    82    70    71    1
    83    74    75    1
    84    74    76    1
    85    74    77    1
    86    78    81    1
    87    78    79    1
    88    78    80    1
    89    82    85    1
    90    82    83   am
    91    83    84    2
    92    83    86    1
    93    86    88    1
    94    86    87    1
    95    86   114    1
    96    88   110    1
    97    88    89   am
    98    89    91    1
    99    89    90    2
   100    91    92    1
   101    91    98    1
   102    91    95    1
   103    92   100    1
   104    92    99    1
   105    92    93    1
   106    93   102    1
   107    93   101    1
   108    93    94    1
   109    94    95    1
   110    94    96   am
   111    95   103    1
   112    95   104    1
   113    96    97    2
   114    96   105    1
   115   105   107    1
   116   105   106    2
   117   106   108    1
   118   106   109    1
   119   110   113    1
   120   110   112    1
   121   110   111    1
   122   114   115    1
   123   114   120    1
   124   114   116    1
   125   116   118    1
   126   116   117    1
   127   116   119    1
   128   120   123    1
   129   120   121    1
   130   120   122    1
   131   124   126    1
   132   124   125    1
   133   124   127    1
   134   127   130    1
   135   127   129    1
   136   127   128    1
