@<TRIPOS>MOLECULE
UNL
 130 136 0 0 0
SMALL
GASTEIGER

@<TRIPOS>ATOM
      1  C          5.5510   12.5020    7.6700 C.ar    1  UNL1        0.0000
      2  C          5.2330   12.7700    6.2960 C.ar    1  UNL1        0.0000
      3  C          6.5520   12.7540    5.7200 C.ar    1  UNL1        0.0000
      4  C          7.3650   13.3880    6.6490 C.ar    1  UNL1        0.0000
      5  N          6.7540   13.1980    7.8840 N.ar    1  UNL1        0.0000
      6  C          8.6540   13.8670    6.3660 C.ar    1  UNL1        0.0000
      7  C          9.2640   13.3910    5.2170 C.ar    1  UNL1        0.0000
      8  C          8.5850   12.5360    4.3550 C.ar    1  UNL1        0.0000
      9  C          7.2030   12.2790    4.5680 C.ar    1  UNL1        0.0000
     10  C          3.9180   13.5040    5.7790 C.3     1  UNL1        0.0000
     11  C          3.2870   13.4690    4.3170 C.3     1  UNL1        0.0000
     12  C          3.2950   14.8540    3.5370 C.3     1  UNL1        0.0000
     13  O          4.5790   15.3750    3.1840 O.3     1  UNL1        0.0000
     14  C          4.7950   16.4220    2.3490 C.2     1  UNL1        0.0000
     15  C          4.0800   16.6320    0.9720 C.3     1  UNL1        0.0000
     16  N          5.1300   16.6600   -0.1150 N.3     1  UNL1        0.0000
     17  N          5.6050   15.3300   -0.4410 N.am    1  UNL1        0.0000
     18  C          4.5280   14.4330   -0.9010 C.3     1  UNL1        0.0000
     19  C          3.2990   14.4210    0.0090 C.3     1  UNL1        0.0000
     20  C          2.9020   15.8310    0.4240 C.3     1  UNL1        0.0000
     21  C          6.5200   14.7900    0.4710 C.2     1  UNL1        0.0000
     22  C          8.0360   15.0480    0.1270 C.3     1  UNL1        0.0000
     23  C          8.5450   13.6490   -0.3850 C.3     1  UNL1        0.0000
     24  C          9.1280   12.7550    0.6870 C.ar    1  UNL1        0.0000
     25  C          8.6770   12.8730    1.9970 C.ar    1  UNL1        0.0000
     26  C          9.1920   12.1700    3.0780 C.ar    1  UNL1        0.0000
     27  C         10.2390   11.2950    2.8440 C.ar    1  UNL1        0.0000
     28  C         10.6900   11.1220    1.5290 C.ar    1  UNL1        0.0000
     29  F         11.7010   10.2730    1.2950 F       1  UNL1        0.0000
     30  C         10.1320   11.8280    0.4530 C.ar    1  UNL1        0.0000
     31  O          6.1100   14.0190    1.3610 O.2     1  UNL1        0.0000
     32  O          5.7270   17.1970    2.6050 O.2     1  UNL1        0.0000
     33  H          9.1250   14.5420    6.9870 H       1  UNL1        0.0000
     34  H         10.2320   13.6740    4.9980 H       1  UNL1        0.0000
     35  H          6.6710   11.7390    3.8680 H       1  UNL1        0.0000
     36  H          4.0920   14.5420    5.9740 H       1  UNL1        0.0000
     37  H          3.1890   12.9060    6.2860 H       1  UNL1        0.0000
     38  H          2.8090   15.5780    4.1560 H       1  UNL1        0.0000
     39  H          2.8010   14.6610    2.6090 H       1  UNL1        0.0000
     40  H          3.5520   17.5210    1.2490 H       1  UNL1        0.0000
     41  H          5.9190   17.2230    0.2020 H       1  UNL1        0.0000
     42  H          4.9170   13.4390   -0.9550 H       1  UNL1        0.0000
     43  H          4.2040   14.8000   -1.8540 H       1  UNL1        0.0000
     44  H          3.5210   13.8500    0.8860 H       1  UNL1        0.0000
     45  H          2.4830   13.9870   -0.5310 H       1  UNL1        0.0000
     46  H          2.5090   16.3420   -0.4300 H       1  UNL1        0.0000
     47  H          2.1740   15.7480    1.2040 H       1  UNL1        0.0000
     48  H          8.0500   15.8570   -0.5730 H       1  UNL1        0.0000
     49  H          9.3000   13.8180   -1.1240 H       1  UNL1        0.0000
     50  H          7.6870   13.1370   -0.7690 H       1  UNL1        0.0000
     51  H          7.9030   13.5300    2.1780 H       1  UNL1        0.0000
     52  H         10.6790   10.7810    3.6220 H       1  UNL1        0.0000
     53  H         10.4670   11.6570   -0.5080 H       1  UNL1        0.0000
     54  C          4.2800   11.0800    9.4280 C.ar    1  UNL1        0.0000
     55  C          5.2830   11.2620    8.4670 C.ar    1  UNL1        0.0000
     56  C          6.1990   10.1910    8.3270 C.ar    1  UNL1        0.0000
     57  C          6.1610    9.0720    9.1530 C.ar    1  UNL1        0.0000
     58  C          5.1820    9.0220   10.1210 C.ar    1  UNL1        0.0000
     59  N          4.2510    9.9820   10.2620 N.ar    1  UNL1        0.0000
     60  H          6.9160   10.2430    7.5880 H       1  UNL1        0.0000
     61  H          6.8440    8.3050    9.0450 H       1  UNL1        0.0000
     62  H          5.1610    8.2140   10.7630 H       1  UNL1        0.0000
     63  C          3.0410   11.9450    9.5900 C.3     1  UNL1        0.0000
     64  H          2.6430   11.6730   10.5450 H       1  UNL1        0.0000
     65  C          2.1380   11.6600    8.3830 C.3     1  UNL1        0.0000
     66  H          2.2890   10.6530    8.0550 H       1  UNL1        0.0000
     67  H          2.3820   12.3340    7.5880 H       1  UNL1        0.0000
     68  H          1.1150   11.7940    8.6630 H       1  UNL1        0.0000
     69  O          3.2050   13.3540    9.6900 O.3     1  UNL1        0.0000
     70  C          3.7980   13.7770   10.9060 C.3     1  UNL1        0.0000
     71  H          3.0520   14.2240   11.5300 H       1  UNL1        0.0000
     72  H          4.5650   14.4940   10.6980 H       1  UNL1        0.0000
     73  H          4.2240   12.9340   11.4070 H       1  UNL1        0.0000
     74  C          1.7400   13.1780    4.3850 C.3     1  UNL1        0.0000
     75  H          1.2440   13.9980    4.8600 H       1  UNL1        0.0000
     76  H          1.5680   12.2840    4.9450 H       1  UNL1        0.0000
     77  H          1.3570   13.0570    3.3930 H       1  UNL1        0.0000
     78  C          3.8650   12.3320    3.4820 C.3     1  UNL1        0.0000
     79  H          3.9440   11.4510    4.0840 H       1  UNL1        0.0000
     80  H          4.8340   12.6080    3.1260 H       1  UNL1        0.0000
     81  H          3.2200   12.1370    2.6490 H       1  UNL1        0.0000
     82  N          8.9820   15.6870    1.1040 N.am    1  UNL1        0.0000
     83  C         10.1330   16.3210    0.6580 C.2     1  UNL1        0.0000
     84  O         10.4090   16.3740   -0.5450 O.2     1  UNL1        0.0000
     85  H          8.7840   15.6550    2.0690 H       1  UNL1        0.0000
     86  C         11.0610   17.0870    1.6620 C.3     1  UNL1        0.0000
     87  H         11.7390   17.7870    1.2190 H       1  UNL1        0.0000
     88  N         10.1800   17.9770    2.4880 N.am    1  UNL1        0.0000
     89  C          9.5760   17.5240    3.6600 C.2     1  UNL1        0.0000
     90  O          9.8620   16.3890    4.0630 O.2     1  UNL1        0.0000
     91  C          8.6720   18.4470    4.5550 C.3     1  UNL1        0.0000
     92  C          7.5560   19.3240    3.9700 C.3     1  UNL1        0.0000
     93  C          6.6070   19.5730    5.1470 C.3     1  UNL1        0.0000
     94  N          6.6140   18.3220    5.8580 N.am    1  UNL1        0.0000
     95  C          7.8680   17.5930    5.5840 C.3     1  UNL1        0.0000
     96  C          5.5140   17.9250    6.5830 C.2     1  UNL1        0.0000
     97  O          4.5120   18.6240    6.7030 O.2     1  UNL1        0.0000
     98  H          9.4470   19.1020    4.8940 H       1  UNL1        0.0000
     99  H          7.0490   18.8130    3.1780 H       1  UNL1        0.0000
    100  H          7.9310   20.2340    3.5500 H       1  UNL1        0.0000
    101  H          5.6240   19.8100    4.8010 H       1  UNL1        0.0000
    102  H          6.9090   20.3990    5.7560 H       1  UNL1        0.0000
    103  H          8.4310   17.4770    6.4850 H       1  UNL1        0.0000
    104  H          7.6660   16.6170    5.1950 H       1  UNL1        0.0000
    105  C          5.5740   16.5790    7.2220 C.2     1  UNL1        0.0000
    106  C          4.7670   16.2500    8.2420 C.2     1  UNL1        0.0000
    107  H          6.2520   15.8850    6.8720 H       1  UNL1        0.0000
    108  H          4.0850   16.9350    8.6020 H       1  UNL1        0.0000
    109  H          4.8290   15.3110    8.6660 H       1  UNL1        0.0000
    110  C          9.6590   19.1160    1.7350 C.3     1  UNL1        0.0000
    111  H          9.1670   19.7920    2.4030 H       1  UNL1        0.0000
    112  H          8.9610   18.7690    1.0010 H       1  UNL1        0.0000
    113  H         10.4670   19.6210    1.2480 H       1  UNL1        0.0000
    114  C         12.2520   16.2440    2.2330 C.3     1  UNL1        0.0000
    115  H         12.3140   16.5730    3.2500 H       1  UNL1        0.0000
    116  C         13.6230   16.4620    1.5810 C.3     1  UNL1        0.0000
    117  H         14.1610   17.2100    2.1240 H       1  UNL1        0.0000
    118  H         13.4890   16.7830    0.5690 H       1  UNL1        0.0000
    119  H         14.1740   15.5450    1.5930 H       1  UNL1        0.0000
    120  C         11.9550   14.7240    2.0470 C.3     1  UNL1        0.0000
    121  H         12.6280   14.1540    2.6530 H       1  UNL1        0.0000
    122  H         12.0860   14.4580    1.0190 H       1  UNL1        0.0000
    123  H         10.9480   14.5190    2.3430 H       1  UNL1        0.0000
    124  C          7.6240   13.3250    9.0530 C.3     1  UNL1        0.0000
    125  H          8.5950   13.5510    8.6650 H       1  UNL1        0.0000
    126  H          7.4210   12.3990    9.5490 H       1  UNL1        0.0000
    127  C          7.4050   14.3010   10.1910 C.3     1  UNL1        0.0000
    128  H          6.9570   13.7910   11.0180 H       1  UNL1        0.0000
    129  H          6.7600   15.0910    9.8660 H       1  UNL1        0.0000
    130  H          8.3460   14.7120   10.4940 H       1  UNL1        0.0000
@<TRIPOS>BOND
     1     1     2   ar
     2     1     5   ar
     3     1    55    1
     4     2     3   ar
     5     2    10    1
     6     3     9   ar
     7     3     4   ar
     8     4     6   ar
     9     4     5   ar
    10     5   124    1
    11     6     7   ar
    12     6    33    1
    13     7     8   ar
    14     7    34    1
    15     8    26    1
    16     8     9   ar
    17     9    35    1
    18    10    11    1
    19    10    36    1
    20    10    37    1
    21    11    78    1
    22    11    12    1
    23    11    74    1
    24    12    39    1
    25    12    13    1
    26    12    38    1
    27    13    14    1
    28    14    15    1
    29    14    32    2
    30    15    16    1
    31    15    20    1
    32    15    40    1
    33    16    17    1
    34    16    41    1
    35    17    18    1
    36    17    21   am
    37    18    43    1
    38    18    42    1
    39    18    19    1
    40    19    45    1
    41    19    20    1
    42    19    44    1
    43    20    46    1
    44    20    47    1
    45    21    22    1
    46    21    31    2
    47    22    48    1
    48    22    23    1
    49    22    82    1
    50    23    49    1
    51    23    50    1
    52    23    24    1
    53    24    30   ar
    54    24    25   ar
    55    25    51    1
    56    25    26   ar
    57    26    27   ar
    58    27    28   ar
    59    27    52    1
    60    28    30   ar
    61    28    29    1
    62    30    53    1
    63    54    55   ar
    64    54    63    1
    65    54    59   ar
    66    55    56   ar
    67    56    60    1
    68    56    57   ar
    69    57    61    1
    70    57    58   ar
    71    58    59   ar
    72    58    62    1
    73    63    65    1
    74    63    69    1
    75    63    64    1
    76    65    67    1
    77    65    66    1
    78    65    68    1
    79    69    70    1
    80    70    72    1
    81    70    73    1
    82    70    71    1
    83    74    77    1
    84    74    75    1
    85    74    76    1
    86    78    81    1
    87    78    80    1
    88    78    79    1
    89    82    83   am
    90    82    85    1
    91    83    84    2
    92    83    86    1
    93    86    87    1
    94    86   114    1
    95    86    88    1
    96    88   110    1
    97    88    89   am
    98    89    90    2
    99    89    91    1
   100    91    92    1
   101    91    98    1
   102    91    95    1
   103    92    99    1
   104    92   100    1
   105    92    93    1
   106    93   101    1
   107    93   102    1
   108    93    94    1
   109    94    95    1
   110    94    96   am
   111    95   104    1
   112    95   103    1
   113    96    97    2
   114    96   105    1
   115   105   107    1
   116   105   106    2
   117   106   108    1
   118   106   109    1
   119   110   112    1
   120   110   113    1
   121   110   111    1
   122   114   116    1
   123   114   120    1
   124   114   115    1
   125   116   118    1
   126   116   119    1
   127   116   117    1
   128   120   122    1
   129   120   123    1
   130   120   121    1
   131   124   125    1
   132   124   126    1
   133   124   127    1
   134   127   129    1
   135   127   130    1
   136   127   128    1
