@<TRIPOS>MOLECULE
UNL
 133 139 0 0 0
SMALL
GASTEIGER

@<TRIPOS>ATOM
      1  C          5.1060   11.8010    8.4010 C.ar    1  UNL1        0.0000
      2  C          4.8820   12.0450    6.9820 C.ar    1  UNL1        0.0000
      3  C          6.2580   12.2290    6.5200 C.ar    1  UNL1        0.0000
      4  C          6.9210   12.8990    7.5540 C.ar    1  UNL1        0.0000
      5  N          6.1520   12.7440    8.6900 N.ar    1  UNL1        0.0000
      6  C          8.1840   13.4990    7.4010 C.ar    1  UNL1        0.0000
      7  C          8.9430   13.1610    6.2960 C.ar    1  UNL1        0.0000
      8  C          8.4090   12.3620    5.2900 C.ar    1  UNL1        0.0000
      9  C          7.0410   11.9720    5.3640 C.ar    1  UNL1        0.0000
     10  C          3.4320   12.4720    6.3030 C.3     1  UNL1        0.0000
     11  C          2.9730   12.5810    4.7340 C.3     1  UNL1        0.0000
     12  C          2.6220   14.0470    4.2040 C.3     1  UNL1        0.0000
     13  O          3.6660   14.9940    4.4210 O.3     1  UNL1        0.0000
     14  C          4.1470   15.9870    3.6810 C.2     1  UNL1        0.0000
     15  C          3.7130   16.4570    2.2640 C.3     1  UNL1        0.0000
     16  N          4.9670   16.8300    1.5020 N.3     1  UNL1        0.0000
     17  N          5.6610   15.6680    1.0000 N.am    1  UNL1        0.0000
     18  C          4.8710   14.7480    0.1830 C.3     1  UNL1        0.0000
     19  C          3.4830   14.4670    0.7330 C.3     1  UNL1        0.0000
     20  C          2.8230   15.7250    1.2710 C.3     1  UNL1        0.0000
     21  C          6.6120   15.0980    1.8680 C.2     1  UNL1        0.0000
     22  C          8.0440   15.7000    1.6160 C.3     1  UNL1        0.0000
     23  C          8.9520   14.5750    1.0000 C.3     1  UNL1        0.0000
     24  C          9.4160   13.4660    1.9020 C.ar    1  UNL1        0.0000
     25  C          8.9460   13.3810    3.2040 C.ar    1  UNL1        0.0000
     26  C          9.1470   12.2880    4.0320 C.ar    1  UNL1        0.0000
     27  C         10.0280   11.2890    3.6080 C.ar    1  UNL1        0.0000
     28  C         10.6120   11.3790    2.3260 C.ar    1  UNL1        0.0000
     29  C         10.2710   12.4450    1.4730 C.ar    1  UNL1        0.0000
     30  O          6.2680   14.2080    2.6450 O.2     1  UNL1        0.0000
     31  O          5.0490   16.6780    4.1990 O.2     1  UNL1        0.0000
     32  H          8.5370   14.1740    8.0970 H       1  UNL1        0.0000
     33  H          9.9120   13.5040    6.2150 H       1  UNL1        0.0000
     34  H          6.6080   11.4910    4.5590 H       1  UNL1        0.0000
     35  H          3.2430   13.4510    6.6940 H       1  UNL1        0.0000
     36  H          2.9080   11.5680    6.5310 H       1  UNL1        0.0000
     37  H          1.7430   14.3880    4.7100 H       1  UNL1        0.0000
     38  H          2.4790   13.9740    3.1470 H       1  UNL1        0.0000
     39  H          3.0040   17.1880    2.5950 H       1  UNL1        0.0000
     40  H          5.5920   17.3420    2.1250 H       1  UNL1        0.0000
     41  H          5.4000   13.8210    0.1140 H       1  UNL1        0.0000
     42  H          4.7380   15.2180   -0.7690 H       1  UNL1        0.0000
     43  H          3.5630   13.7520    1.5250 H       1  UNL1        0.0000
     44  H          2.8790   14.0900   -0.0660 H       1  UNL1        0.0000
     45  H          2.6070   16.3790    0.4520 H       1  UNL1        0.0000
     46  H          1.9280   15.4350    1.7810 H       1  UNL1        0.0000
     47  H          7.9160   16.5000    0.9170 H       1  UNL1        0.0000
     48  H          9.8250   15.0510    0.6060 H       1  UNL1        0.0000
     49  H          8.3230   14.0900    0.2820 H       1  UNL1        0.0000
     50  H          8.4150   14.1820    3.5800 H       1  UNL1        0.0000
     51  H         10.2500   10.4930    4.2270 H       1  UNL1        0.0000
     52  H         10.6580   12.4750    0.5160 H       1  UNL1        0.0000
     53  C          4.5260   10.0360   10.3440 C.ar    1  UNL1        0.0000
     54  C          5.2030   10.4710    9.1940 C.ar    1  UNL1        0.0000
     55  C          6.2500    9.5920    8.7970 C.ar    1  UNL1        0.0000
     56  C          6.6920    8.5030    9.5550 C.ar    1  UNL1        0.0000
     57  C          6.0210    8.2250   10.7070 C.ar    1  UNL1        0.0000
     58  N          4.9610    8.9430   11.0930 N.ar    1  UNL1        0.0000
     59  H          6.7120    9.7690    7.8910 H       1  UNL1        0.0000
     60  H          7.4960    7.9320    9.2520 H       1  UNL1        0.0000
     61  H          6.3390    7.4390   11.2960 H       1  UNL1        0.0000
     62  C          3.2260   10.5140   10.9570 C.3     1  UNL1        0.0000
     63  H          3.1750   10.0380   11.9140 H       1  UNL1        0.0000
     64  C          2.0600   10.0790   10.0440 C.3     1  UNL1        0.0000
     65  H          1.4980   10.9400    9.7480 H       1  UNL1        0.0000
     66  H          1.4230    9.4030   10.5760 H       1  UNL1        0.0000
     67  H          2.4490    9.5910    9.1750 H       1  UNL1        0.0000
     68  O          3.1370   11.8870   11.3220 O.3     1  UNL1        0.0000
     69  C          3.9620   12.1740   12.4520 C.3     1  UNL1        0.0000
     70  H          4.5600   11.3180   12.6830 H       1  UNL1        0.0000
     71  H          3.3460   12.4170   13.2920 H       1  UNL1        0.0000
     72  H          4.6000   13.0040   12.2260 H       1  UNL1        0.0000
     73  C         11.5960   10.3420    1.8410 C.3     1  UNL1        0.0000
     74  F         12.0000   10.5170    0.5510 F       1  UNL1        0.0000
     75  H         11.1360    9.3800    1.9220 H       1  UNL1        0.0000
     76  H         12.4690   10.4350    2.4540 H       1  UNL1        0.0000
     77  N          8.6750   16.4630    2.7190 N.am    1  UNL1        0.0000
     78  C          9.5480   17.4950    2.4270 C.2     1  UNL1        0.0000
     79  O          9.8120   17.7850    1.2510 O.2     1  UNL1        0.0000
     80  H          8.4730   16.2360    3.6560 H       1  UNL1        0.0000
     81  C         10.1090   18.4030    3.5660 C.3     1  UNL1        0.0000
     82  H         10.7060   19.1790    3.1330 H       1  UNL1        0.0000
     83  N          8.9480   19.0410    4.2450 N.am    1  UNL1        0.0000
     84  C          8.3540   18.4430    5.3470 C.2     1  UNL1        0.0000
     85  O          8.7410   17.3500    5.7610 O.2     1  UNL1        0.0000
     86  C          7.1910   19.1690    6.0300 C.3     1  UNL1        0.0000
     87  C          6.1260   19.6210    5.0240 C.3     1  UNL1        0.0000
     88  C          4.8470   19.6750    5.8490 C.3     1  UNL1        0.0000
     89  N          5.0060   18.6080    6.8200 N.am    1  UNL1        0.0000
     90  C          6.4080   18.2410    6.9650 C.3     1  UNL1        0.0000
     91  C          3.9130   18.0000    7.4030 C.2     1  UNL1        0.0000
     92  O          2.7680   18.3270    7.1630 O.2     1  UNL1        0.0000
     93  H          7.6550   19.9880    6.5420 H       1  UNL1        0.0000
     94  H          6.0350   18.9170    4.2250 H       1  UNL1        0.0000
     95  H          6.3630   20.5580    4.5640 H       1  UNL1        0.0000
     96  H          3.9900   19.5020    5.2320 H       1  UNL1        0.0000
     97  H          4.6950   20.6280    6.3090 H       1  UNL1        0.0000
     98  H          6.7250   18.3810    7.9780 H       1  UNL1        0.0000
     99  H          6.5700   17.2120    6.7200 H       1  UNL1        0.0000
    100  C          4.2170   16.9050    8.3700 C.2     1  UNL1        0.0000
    101  C          4.0430   15.6150    8.0520 C.2     1  UNL1        0.0000
    102  H          4.5700   17.1480    9.3090 H       1  UNL1        0.0000
    103  H          3.6910   15.3570    7.1170 H       1  UNL1        0.0000
    104  H          4.2620   14.8800    8.7420 H       1  UNL1        0.0000
    105  C          8.4230   20.2450    3.6070 C.3     1  UNL1        0.0000
    106  H          8.4490   20.1250    2.5430 H       1  UNL1        0.0000
    107  H          9.0230   21.0860    3.8860 H       1  UNL1        0.0000
    108  H          7.4140   20.4050    3.9230 H       1  UNL1        0.0000
    109  C         11.2420   17.8170    4.4510 C.3     1  UNL1        0.0000
    110  H         10.7530   17.1960    5.1720 H       1  UNL1        0.0000
    111  C         12.2340   17.0190    3.5840 C.3     1  UNL1        0.0000
    112  H         13.2090   17.4520    3.6690 H       1  UNL1        0.0000
    113  H         11.9180   17.0470    2.5620 H       1  UNL1        0.0000
    114  H         12.2650   16.0040    3.9210 H       1  UNL1        0.0000
    115  C         12.0510   18.8950    5.1930 C.3     1  UNL1        0.0000
    116  H         11.4620   19.7840    5.2860 H       1  UNL1        0.0000
    117  H         12.9420   19.1140    4.6440 H       1  UNL1        0.0000
    118  H         12.3100   18.5370    6.1680 H       1  UNL1        0.0000
    119  C          3.9910   11.9260    3.8130 C.3     1  UNL1        0.0000
    120  H          4.6460   11.3060    4.3890 H       1  UNL1        0.0000
    121  H          4.5600   12.6820    3.3150 H       1  UNL1        0.0000
    122  H          3.4820   11.3270    3.0870 H       1  UNL1        0.0000
    123  C          1.6090   11.8450    4.4310 C.3     1  UNL1        0.0000
    124  H          1.8070   10.9200    3.9290 H       1  UNL1        0.0000
    125  H          1.0000   12.4660    3.8070 H       1  UNL1        0.0000
    126  H          1.0970   11.6500    5.3490 H       1  UNL1        0.0000
    127  C          6.6500   13.1340   10.0230 C.3     1  UNL1        0.0000
    128  H          7.7080   12.9750   10.0150 H       1  UNL1        0.0000
    129  H          6.0650   12.5320   10.6880 H       1  UNL1        0.0000
    130  C          6.4190   14.5730   10.5540 C.3     1  UNL1        0.0000
    131  H          5.7410   15.0880    9.9060 H       1  UNL1        0.0000
    132  H          7.3520   15.0970   10.5810 H       1  UNL1        0.0000
    133  H          6.0060   14.5290   11.5400 H       1  UNL1        0.0000
@<TRIPOS>BOND
     1     1     2   ar
     2     1     5   ar
     3     1    54    1
     4     2    10    1
     5     2     3   ar
     6     3     9   ar
     7     3     4   ar
     8     4     6   ar
     9     4     5   ar
    10     5   127    1
    11     6     7   ar
    12     6    32    1
    13     7     8   ar
    14     7    33    1
    15     8    26    1
    16     8     9   ar
    17     9    34    1
    18    10    11    1
    19    10    36    1
    20    10    35    1
    21    11   119    1
    22    11    12    1
    23    11   123    1
    24    12    38    1
    25    12    13    1
    26    12    37    1
    27    13    14    1
    28    14    15    1
    29    14    31    2
    30    15    20    1
    31    15    16    1
    32    15    39    1
    33    16    17    1
    34    16    40    1
    35    17    18    1
    36    17    21   am
    37    18    42    1
    38    18    41    1
    39    18    19    1
    40    19    44    1
    41    19    20    1
    42    19    43    1
    43    20    45    1
    44    20    46    1
    45    21    22    1
    46    21    30    2
    47    22    47    1
    48    22    23    1
    49    22    77    1
    50    23    49    1
    51    23    48    1
    52    23    24    1
    53    24    29   ar
    54    24    25   ar
    55    25    50    1
    56    25    26   ar
    57    26    27   ar
    58    27    28   ar
    59    27    51    1
    60    28    29   ar
    61    28    73    1
    62    29    52    1
    63    53    54   ar
    64    53    62    1
    65    53    58   ar
    66    54    55   ar
    67    55    59    1
    68    55    56   ar
    69    56    60    1
    70    56    57   ar
    71    57    58   ar
    72    57    61    1
    73    62    64    1
    74    62    68    1
    75    62    63    1
    76    64    67    1
    77    64    65    1
    78    64    66    1
    79    68    69    1
    80    69    72    1
    81    69    70    1
    82    69    71    1
    83    73    74    1
    84    73    75    1
    85    73    76    1
    86    77    78   am
    87    77    80    1
    88    78    79    2
    89    78    81    1
    90    81    82    1
    91    81    83    1
    92    81   109    1
    93    83   105    1
    94    83    84   am
    95    84    85    2
    96    84    86    1
    97    86    87    1
    98    86    93    1
    99    86    90    1
   100    87    94    1
   101    87    95    1
   102    87    88    1
   103    88    96    1
   104    88    97    1
   105    88    89    1
   106    89    90    1
   107    89    91   am
   108    90    99    1
   109    90    98    1
   110    91    92    2
   111    91   100    1
   112   100   101    2
   113   100   102    1
   114   101   103    1
   115   101   104    1
   116   105   106    1
   117   105   107    1
   118   105   108    1
   119   109   111    1
   120   109   110    1
   121   109   115    1
   122   111   113    1
   123   111   112    1
   124   111   114    1
   125   115   117    1
   126   115   116    1
   127   115   118    1
   128   119   122    1
   129   119   121    1
   130   119   120    1
   131   123   125    1
   132   123   124    1
   133   123   126    1
   134   127   128    1
   135   127   130    1
   136   127   129    1
   137   130   131    1
   138   130   132    1
   139   130   133    1
