@<TRIPOS>MOLECULE
UNL
 133 139 0 0 0
SMALL
GASTEIGER

@<TRIPOS>ATOM
      1  C          6.8290   13.9790    7.8280 C.ar    1  UNL1        0.0000
      2  C          6.6850   15.0070    6.7960 C.ar    1  UNL1        0.0000
      3  C          7.3950   16.4300    6.8540 C.3     1  UNL1        0.0000
      4  C          7.1780   17.7440    5.9510 C.3     1  UNL1        0.0000
      5  C          8.3810   18.1280    4.9700 C.3     1  UNL1        0.0000
      6  O          8.3990   17.5420    3.6590 O.3     1  UNL1        0.0000
      7  C          9.5750   17.7440    2.9640 C.2     1  UNL1        0.0000
      8  C          9.4660   18.6690    1.7270 C.3     1  UNL1        0.0000
      9  N          8.9760   18.0110    0.4820 N.3     1  UNL1        0.0000
     10  N          7.5340   17.9740    0.3600 N.am    1  UNL1        0.0000
     11  C          6.9880   17.3070   -0.7530 C.2     1  UNL1        0.0000
     12  C          7.2480   15.7920   -1.0060 C.3     1  UNL1        0.0000
     13  C          5.8490   15.0530   -1.2510 C.3     1  UNL1        0.0000
     14  C          4.9100   14.5790   -0.1430 C.ar    1  UNL1        0.0000
     15  C          5.3360   14.3900    1.1590 C.ar    1  UNL1        0.0000
     16  C          4.5260   13.8280    2.1760 C.ar    1  UNL1        0.0000
     17  C          3.2280   13.4480    1.8490 C.ar    1  UNL1        0.0000
     18  C          2.7320   13.6370    0.5360 C.ar    1  UNL1        0.0000
     19  C          3.5810   14.2070   -0.4340 C.ar    1  UNL1        0.0000
     20  O          6.1870   17.8930   -1.5010 O.2     1  UNL1        0.0000
     21  C          6.8630   19.2460    0.6450 C.3     1  UNL1        0.0000
     22  C          7.2740   19.8570    1.9700 C.3     1  UNL1        0.0000
     23  C          8.7840   20.0050    2.0150 C.3     1  UNL1        0.0000
     24  O         10.6480   17.2730    3.3110 O.2     1  UNL1        0.0000
     25  C          6.1320   14.2670    5.6670 C.ar    1  UNL1        0.0000
     26  C          6.7230   13.0030    5.7620 C.ar    1  UNL1        0.0000
     27  C          6.7190   12.1030    4.6860 C.ar    1  UNL1        0.0000
     28  C          5.9480   12.3780    3.5620 C.ar    1  UNL1        0.0000
     29  C          5.2000   13.5450    3.4670 C.ar    1  UNL1        0.0000
     30  C          5.3200   14.4970    4.5120 C.ar    1  UNL1        0.0000
     31  N          7.2560   12.8930    7.0330 N.ar    1  UNL1        0.0000
     32  H          8.4350   16.2050    6.7360 H       1  UNL1        0.0000
     33  H          6.9090   16.7890    7.7360 H       1  UNL1        0.0000
     34  H          9.2910   17.8460    5.4560 H       1  UNL1        0.0000
     35  H          8.2540   19.1750    4.7900 H       1  UNL1        0.0000
     36  H         10.4860   18.9070    1.5070 H       1  UNL1        0.0000
     37  H          9.3220   17.0520    0.4680 H       1  UNL1        0.0000
     38  H          7.9330   15.9340   -1.8150 H       1  UNL1        0.0000
     39  H          6.0830   14.1790   -1.8220 H       1  UNL1        0.0000
     40  H          5.2740   15.8540   -1.6660 H       1  UNL1        0.0000
     41  H          6.2980   14.6740    1.4030 H       1  UNL1        0.0000
     42  H          2.6210   13.0260    2.5690 H       1  UNL1        0.0000
     43  H          3.2190   14.3570   -1.3880 H       1  UNL1        0.0000
     44  H          5.8060   19.0770    0.6630 H       1  UNL1        0.0000
     45  H          7.1470   19.9340   -0.1240 H       1  UNL1        0.0000
     46  H          6.9530   19.2230    2.7700 H       1  UNL1        0.0000
     47  H          6.8190   20.8200    2.0730 H       1  UNL1        0.0000
     48  H          9.0890   20.7200    1.2810 H       1  UNL1        0.0000
     49  H          9.0670   20.3310    2.9930 H       1  UNL1        0.0000
     50  H          7.2860   11.2420    4.7280 H       1  UNL1        0.0000
     51  H          5.9300   11.7000    2.7840 H       1  UNL1        0.0000
     52  H          4.8000   15.3870    4.4370 H       1  UNL1        0.0000
     53  C          5.0520   12.6700    9.5000 C.ar    1  UNL1        0.0000
     54  C          5.9480   13.7340    9.0950 C.ar    1  UNL1        0.0000
     55  C          5.9190   14.8480    9.9800 C.ar    1  UNL1        0.0000
     56  C          5.0690   14.9460   11.0840 C.ar    1  UNL1        0.0000
     57  C          4.2240   13.9030   11.3510 C.ar    1  UNL1        0.0000
     58  N          4.2270   12.7950   10.5990 N.ar    1  UNL1        0.0000
     59  H          6.5660   15.6320    9.7940 H       1  UNL1        0.0000
     60  H          5.0790   15.7850   11.6860 H       1  UNL1        0.0000
     61  H          3.5720   13.9710   12.1480 H       1  UNL1        0.0000
     62  C          4.7200   11.3200    8.8330 C.3     1  UNL1        0.0000
     63  H          5.7120   11.0020    8.5900 H       1  UNL1        0.0000
     64  C          3.9130   11.4060    7.5040 C.3     1  UNL1        0.0000
     65  H          4.4250   12.0440    6.8160 H       1  UNL1        0.0000
     66  H          2.9390   11.8040    7.7030 H       1  UNL1        0.0000
     67  H          3.8170   10.4280    7.0810 H       1  UNL1        0.0000
     68  O          4.1640   10.3060    9.6770 O.3     1  UNL1        0.0000
     69  C          5.0660    9.2670   10.0200 C.3     1  UNL1        0.0000
     70  H          5.0280    9.0970   11.0760 H       1  UNL1        0.0000
     71  H          6.0590    9.5510    9.7400 H       1  UNL1        0.0000
     72  H          4.7920    8.3710    9.5040 H       1  UNL1        0.0000
     73  C          5.8460   17.7880    5.2160 C.3     1  UNL1        0.0000
     74  H          5.0480   17.6430    5.9130 H       1  UNL1        0.0000
     75  H          5.8190   17.0150    4.4770 H       1  UNL1        0.0000
     76  H          5.7340   18.7400    4.7390 H       1  UNL1        0.0000
     77  C          7.1520   18.9960    6.9100 C.3     1  UNL1        0.0000
     78  H          7.0460   18.6680    7.9220 H       1  UNL1        0.0000
     79  H          6.3270   19.6260    6.6500 H       1  UNL1        0.0000
     80  H          8.0660   19.5430    6.8060 H       1  UNL1        0.0000
     81  C          1.3440   13.1750    0.1410 C.3     1  UNL1        0.0000
     82  F          1.0960   11.8840    0.4850 F       1  UNL1        0.0000
     83  F          1.0900   13.2660   -1.1920 F       1  UNL1        0.0000
     84  H          0.7090   13.8470    0.6810 H       1  UNL1        0.0000
     85  N          8.3590   14.9470   -0.5130 N.am    1  UNL1        0.0000
     86  C          9.6960   15.1500   -0.7800 C.2     1  UNL1        0.0000
     87  O         10.0420   15.9360   -1.6530 O.2     1  UNL1        0.0000
     88  H          8.1230   14.1760    0.0530 H       1  UNL1        0.0000
     89  C         10.7210   14.4040    0.1180 C.3     1  UNL1        0.0000
     90  H         10.9690   13.4630   -0.3260 H       1  UNL1        0.0000
     91  N         12.1040   14.9770    0.1150 N.am    1  UNL1        0.0000
     92  C         13.3120   14.3480   -0.2230 C.2     1  UNL1        0.0000
     93  O         14.3800   14.9780   -0.1480 O.2     1  UNL1        0.0000
     94  C         13.3640   12.9140   -0.7570 C.3     1  UNL1        0.0000
     95  C         14.7270   12.2700   -0.4160 C.3     1  UNL1        0.0000
     96  C         14.4050   10.8620    0.0590 C.3     1  UNL1        0.0000
     97  N         13.1100   11.0060    0.6830 N.am    1  UNL1        0.0000
     98  C         12.5500   10.2860    1.7170 C.2     1  UNL1        0.0000
     99  O         11.3830   10.4440    2.0700 O.2     1  UNL1        0.0000
    100  C         12.3420   12.0380   -0.0030 C.3     1  UNL1        0.0000
    101  H         13.1800   12.9620   -1.8100 H       1  UNL1        0.0000
    102  H         15.2180   12.8220    0.3580 H       1  UNL1        0.0000
    103  H         15.3840   12.2630   -1.2600 H       1  UNL1        0.0000
    104  H         15.1340   10.5200    0.7640 H       1  UNL1        0.0000
    105  H         14.4080   10.1440   -0.7330 H       1  UNL1        0.0000
    106  H         11.6570   11.5920   -0.6930 H       1  UNL1        0.0000
    107  H         11.7700   12.6200    0.6890 H       1  UNL1        0.0000
    108  C         13.4230    9.3050    2.4220 C.2     1  UNL1        0.0000
    109  C         13.4220    9.2210    3.7630 C.2     1  UNL1        0.0000
    110  H         14.0340    8.6810    1.8730 H       1  UNL1        0.0000
    111  H         12.8130    9.8420    4.3190 H       1  UNL1        0.0000
    112  H         14.0320    8.5370    4.2370 H       1  UNL1        0.0000
    113  C         12.2740   16.3950    0.4220 C.3     1  UNL1        0.0000
    114  H         12.4230   16.9400   -0.4860 H       1  UNL1        0.0000
    115  H         13.1250   16.5220    1.0580 H       1  UNL1        0.0000
    116  H         11.3990   16.7600    0.9180 H       1  UNL1        0.0000
    117  C         10.0510   14.0070    1.4890 C.3     1  UNL1        0.0000
    118  H          9.5660   14.9460    1.6560 H       1  UNL1        0.0000
    119  C          9.1010   12.8230    1.3590 C.3     1  UNL1        0.0000
    120  H          9.6610   11.9380    1.1400 H       1  UNL1        0.0000
    121  H          8.4040   13.0110    0.5680 H       1  UNL1        0.0000
    122  H          8.5680   12.6920    2.2780 H       1  UNL1        0.0000
    123  C         10.8600   13.8360    2.7770 C.3     1  UNL1        0.0000
    124  H         10.2440   14.0740    3.6190 H       1  UNL1        0.0000
    125  H         11.7060   14.4910    2.7570 H       1  UNL1        0.0000
    126  H         11.1960   12.8230    2.8550 H       1  UNL1        0.0000
    127  C          8.0360   11.7780    7.5310 C.3     1  UNL1        0.0000
    128  H          7.3860   10.9290    7.5230 H       1  UNL1        0.0000
    129  H          8.3890   12.1490    8.4700 H       1  UNL1        0.0000
    130  C          9.3230   11.3380    6.8520 C.3     1  UNL1        0.0000
    131  H          9.8560   10.6700    7.4950 H       1  UNL1        0.0000
    132  H          9.9290   12.1960    6.6470 H       1  UNL1        0.0000
    133  H          9.0890   10.8410    5.9340 H       1  UNL1        0.0000
@<TRIPOS>BOND
     1     1     2   ar
     2     1    31   ar
     3     1    54    1
     4     2    25   ar
     5     2     3    1
     6     3     4    1
     7     3    32    1
     8     3    33    1
     9     4     5    1
    10     4    73    1
    11     4    77    1
    12     5     6    1
    13     5    35    1
    14     5    34    1
    15     6     7    1
    16     7     8    1
    17     7    24    2
    18     8     9    1
    19     8    36    1
    20     8    23    1
    21     9    10    1
    22     9    37    1
    23    10    11   am
    24    10    21    1
    25    11    20    2
    26    11    12    1
    27    12    38    1
    28    12    13    1
    29    12    85    1
    30    13    39    1
    31    13    40    1
    32    13    14    1
    33    14    19   ar
    34    14    15   ar
    35    15    41    1
    36    15    16   ar
    37    16    17   ar
    38    16    29    1
    39    17    18   ar
    40    17    42    1
    41    18    19   ar
    42    18    81    1
    43    19    43    1
    44    21    45    1
    45    21    44    1
    46    21    22    1
    47    22    23    1
    48    22    47    1
    49    22    46    1
    50    23    48    1
    51    23    49    1
    52    25    30   ar
    53    25    26   ar
    54    26    27   ar
    55    26    31   ar
    56    27    28   ar
    57    27    50    1
    58    28    51    1
    59    28    29   ar
    60    29    30   ar
    61    30    52    1
    62    31   127    1
    63    53    62    1
    64    53    54   ar
    65    53    58   ar
    66    54    55   ar
    67    55    59    1
    68    55    56   ar
    69    56    57   ar
    70    56    60    1
    71    57    58   ar
    72    57    61    1
    73    62    64    1
    74    62    63    1
    75    62    68    1
    76    64    65    1
    77    64    67    1
    78    64    66    1
    79    68    69    1
    80    69    72    1
    81    69    71    1
    82    69    70    1
    83    73    75    1
    84    73    76    1
    85    73    74    1
    86    77    79    1
    87    77    80    1
    88    77    78    1
    89    81    83    1
    90    81    82    1
    91    81    84    1
    92    85    86   am
    93    85    88    1
    94    86    87    2
    95    86    89    1
    96    89    90    1
    97    89    91    1
    98    89   117    1
    99    91    92   am
   100    91   113    1
   101    92    94    1
   102    92    93    2
   103    94   101    1
   104    94    95    1
   105    94   100    1
   106    95   103    1
   107    95    96    1
   108    95   102    1
   109    96   105    1
   110    96    97    1
   111    96   104    1
   112    97   100    1
   113    97    98   am
   114    98    99    2
   115    98   108    1
   116   100   106    1
   117   100   107    1
   118   108   110    1
   119   108   109    2
   120   109   112    1
   121   109   111    1
   122   113   114    1
   123   113   116    1
   124   113   115    1
   125   117   119    1
   126   117   118    1
   127   117   123    1
   128   119   121    1
   129   119   120    1
   130   119   122    1
   131   123   125    1
   132   123   126    1
   133   123   124    1
   134   127   130    1
   135   127   128    1
   136   127   129    1
   137   130   133    1
   138   130   132    1
   139   130   131    1
