@<TRIPOS>MOLECULE
UNL
 32 33 0 0 0
SMALL
GASTEIGER

@<TRIPOS>ATOM
      1  C          8.7750   13.0590    6.1010 C.ar    1  UNL1        0.0000
      2  C          8.9170   13.7920    4.9220 C.ar    1  UNL1        0.0000
      3  C          9.6590   13.2840    3.8550 C.ar    1  UNL1        0.0000
      4  C         10.2820   12.0420    3.9710 C.ar    1  UNL1        0.0000
      5  C         10.1290   11.2810    5.1310 C.ar    1  UNL1        0.0000
      6  C          9.3860   11.7990    6.1980 C.ar    1  UNL1        0.0000
      7  H          8.4710   14.7190    4.8400 H       1  UNL1        0.0000
      8  H          9.7460   13.8260    2.9800 H       1  UNL1        0.0000
      9  H         10.5600   10.3460    5.2000 H       1  UNL1        0.0000
     10  H          9.2850   11.2480    7.0650 H       1  UNL1        0.0000
     11  O          5.9400   12.6640    6.8470 O.2     1  UNL1        0.0000
     12  C          6.7200   13.3590    7.4980 C.2     1  UNL1        0.0000
     13  N          8.0640   13.5290    7.2220 N.am    1  UNL1        0.0000
     14  H          8.5840   14.0360    7.8860 H       1  UNL1        0.0000
     15  C          6.2020   14.0880    8.7280 C.3     1  UNL1        0.0000
     16 CL          7.4070   14.2320   10.0280 Cl      1  UNL1        0.0000
     17  H          5.3560   13.5530    9.1080 H       1  UNL1        0.0000
     18  H          5.9490   15.0810    8.4210 H       1  UNL1        0.0000
     19  S         11.2360   11.4240    2.6110 S.O2    1  UNL1        0.0000
     20  O         12.5180   10.9970    3.1240 O.2     1  UNL1        0.0000
     21  O         10.3980   10.5390    1.8320 O.2     1  UNL1        0.0000
     22  N         11.5470   12.8660    1.7360 N.pl3   1  UNL1        0.0000
     23  H         11.9480   13.6690    2.1420 H       1  UNL1        0.0000
     24  C         11.1680   12.7860    0.3560 C.ar    1  UNL1        0.0000
     25  C         11.8770   12.1560   -0.6430 C.ar    1  UNL1        0.0000
     26  C         11.2010   12.2490   -1.9010 C.ar    1  UNL1        0.0000
     27  C          9.9990   12.9170   -1.7980 C.ar    1  UNL1        0.0000
     28  S          9.6730   13.3950   -0.1870 S.2     1  UNL1        0.0000
     29  H         11.5700   11.8620   -2.7840 H       1  UNL1        0.0000
     30  H          9.3720   13.1050   -2.5960 H       1  UNL1        0.0000
     31  C         13.1080   11.4520   -0.4600 C.1     1  UNL1        0.0000
     32  N         14.0980   10.8710   -0.2760 N.1     1  UNL1        0.0000
@<TRIPOS>BOND
     1     1     2   ar
     2     1     6   ar
     3     1    13    1
     4     2     3   ar
     5     2     7    1
     6     3     8    1
     7     3     4   ar
     8     4    19    1
     9     4     5   ar
    10     5     9    1
    11     5     6   ar
    12     6    10    1
    13    11    12    2
    14    12    13   am
    15    12    15    1
    16    13    14    1
    17    15    18    1
    18    15    17    1
    19    15    16    1
    20    19    22    1
    21    19    21    2
    22    19    20    2
    23    22    24    1
    24    22    23    1
    25    24    25   ar
    26    24    28   ar
    27    25    26   ar
    28    25    31    1
    29    26    29    1
    30    26    27   ar
    31    27    30    1
    32    27    28   ar
    33    31    32    3
