@<TRIPOS>MOLECULE
UNL
 35 37 0 0 0
SMALL
GASTEIGER

@<TRIPOS>ATOM
      1  C          9.5410   12.8280    4.1020 C.ar    1  UNL1        0.0000
      2  C          9.4780   11.6760    4.9180 C.ar    1  UNL1        0.0000
      3  C          8.9590   11.7310    6.2160 C.ar    1  UNL1        0.0000
      4  C          8.5060   12.9460    6.7240 C.ar    1  UNL1        0.0000
      5  C          8.5640   14.0980    5.9350 C.ar    1  UNL1        0.0000
      6  C          9.0650   14.0410    4.6230 C.ar    1  UNL1        0.0000
      7  H          9.8230   10.7760    4.5490 H       1  UNL1        0.0000
      8  H          8.1280   12.9960    7.6830 H       1  UNL1        0.0000
      9  H          8.2370   14.9980    6.3180 H       1  UNL1        0.0000
     10  C         13.1430   11.1950   -1.0280 C.ar    1  UNL1        0.0000
     11  C         11.8120   11.5920   -0.9650 C.ar    1  UNL1        0.0000
     12  F         11.1050   11.6010   -2.1030 F       1  UNL1        0.0000
     13  C         11.2380   11.9530    0.2540 C.ar    1  UNL1        0.0000
     14  C         11.9990   11.9010    1.4380 C.ar    1  UNL1        0.0000
     15  C         13.3400   11.5110    1.3670 C.ar    1  UNL1        0.0000
     16  C         13.8980   11.1690    0.1380 C.ar    1  UNL1        0.0000
     17  F         15.1830   10.8000    0.0810 F       1  UNL1        0.0000
     18  N         11.3960   12.1760    2.6730 N.ar    1  UNL1        0.0000
     19  C         10.0960   12.6120    2.7550 C.ar    1  UNL1        0.0000
     20  C          9.2910   12.7360    1.6890 C.ar    1  UNL1        0.0000
     21  C          9.8260   12.3980    0.3450 C.ar    1  UNL1        0.0000
     22  O          9.0880   12.4930   -0.6260 O.2     1  UNL1        0.0000
     23  H         13.5660   10.9210   -1.9290 H       1  UNL1        0.0000
     24  H         13.9150   11.4770    2.2240 H       1  UNL1        0.0000
     25  H         11.9160   12.0530    3.5010 H       1  UNL1        0.0000
     26  H          8.3180   13.0580    1.8010 H       1  UNL1        0.0000
     27  S          9.1130   15.5780    3.7100 S.O2    1  UNL1        0.0000
     28  O         10.4730   15.7380    3.2280 O.2     1  UNL1        0.0000
     29  O          8.0090   15.6010    2.7720 O.2     1  UNL1        0.0000
     30  C          8.8390   16.8170    4.9510 C.3     1  UNL1        0.0000
     31  H          9.1160   17.7750    4.5660 H       1  UNL1        0.0000
     32  H          9.4310   16.5940    5.8140 H       1  UNL1        0.0000
     33  H          7.8040   16.8270    5.2230 H       1  UNL1        0.0000
     34  C          8.8940   10.5410    7.0130 C.1     1  UNL1        0.0000
     35  N          8.8500    9.5760    7.6580 N.1     1  UNL1        0.0000
@<TRIPOS>BOND
     1     1    19    1
     2     1     6   ar
     3     1     2   ar
     4     2     7    1
     5     2     3   ar
     6     3     4   ar
     7     3    34    1
     8     4     5   ar
     9     4     8    1
    10     5     6   ar
    11     5     9    1
    12     6    27    1
    13    10    23    1
    14    10    11   ar
    15    10    16   ar
    16    11    12    1
    17    11    13   ar
    18    13    21   ar
    19    13    14   ar
    20    14    15   ar
    21    14    18   ar
    22    15    16   ar
    23    15    24    1
    24    16    17    1
    25    18    19   ar
    26    18    25    1
    27    19    20   ar
    28    20    21   ar
    29    20    26    1
    30    21    22    2
    31    27    29    2
    32    27    28    2
    33    27    30    1
    34    30    31    1
    35    30    33    1
    36    30    32    1
    37    34    35    3
