@<TRIPOS>MOLECULE
UNL
 39 42 0 0 0
SMALL
GASTEIGER

@<TRIPOS>ATOM
      1  C          7.4180   11.3770    6.9220 C.ar    1  UNL1        0.0000
      2  C          8.4700   11.0210    6.0340 C.ar    1  UNL1        0.0000
      3  C          9.2540   11.9720    5.3650 C.ar    1  UNL1        0.0000
      4  C          8.9660   13.3220    5.5140 C.ar    1  UNL1        0.0000
      5  C          7.8970   13.7100    6.3200 C.ar    1  UNL1        0.0000
      6  C          7.1330   12.7570    7.0320 C.ar    1  UNL1        0.0000
      7  H          8.6630   10.0200    5.8740 H       1  UNL1        0.0000
      8  H          9.5390   14.0320    5.0320 H       1  UNL1        0.0000
      9  H          7.6600   14.7110    6.4000 H       1  UNL1        0.0000
     10  O          7.3750    8.1340   10.4610 O.2     1  UNL1        0.0000
     11  C          6.7520    8.6490    9.5430 C.ar    1  UNL1        0.0000
     12  C          5.3720    8.2650    9.1850 C.ar    1  UNL1        0.0000
     13  C          4.7930    8.8680    8.0560 C.ar    1  UNL1        0.0000
     14  C          3.4540    8.6000    7.7590 C.ar    1  UNL1        0.0000
     15  C          2.7350    7.7040    8.5470 C.ar    1  UNL1        0.0000
     16  F          1.4510    7.4610    8.2600 F       1  UNL1        0.0000
     17  C          3.3230    7.0660    9.6320 C.ar    1  UNL1        0.0000
     18  C          4.6450    7.3540    9.9500 C.ar    1  UNL1        0.0000
     19  F          5.1830    6.7470   11.0160 F       1  UNL1        0.0000
     20  N          5.5180    9.8100    7.3070 N.ar    1  UNL1        0.0000
     21  C          6.7640   10.2590    7.6810 C.ar    1  UNL1        0.0000
     22  C          7.3830    9.7400    8.7600 C.ar    1  UNL1        0.0000
     23  H          2.9990    9.0660    6.9580 H       1  UNL1        0.0000
     24  H          2.7850    6.3890   10.1940 H       1  UNL1        0.0000
     25  H          5.1180   10.1640    6.4790 H       1  UNL1        0.0000
     26  H          8.3050   10.1060    9.0450 H       1  UNL1        0.0000
     27  S          5.7830   13.4240    7.9970 S.O2    1  UNL1        0.0000
     28  O          5.7170   14.8520    7.7420 O.2     1  UNL1        0.0000
     29  O          4.6280   12.5840    7.7340 O.2     1  UNL1        0.0000
     30  C          6.2310   13.2100    9.7450 C.3     1  UNL1        0.0000
     31  C          6.1110   14.4990   10.5260 C.3     1  UNL1        0.0000
     32  C          7.4660   13.9290   10.2140 C.3     1  UNL1        0.0000
     33  H          5.8860   12.2010    9.8400 H       1  UNL1        0.0000
     34  H          5.7420   14.4840   11.5300 H       1  UNL1        0.0000
     35  H          5.6290   15.4400   10.3640 H       1  UNL1        0.0000
     36  H          8.1010   14.4180    9.5040 H       1  UNL1        0.0000
     37  H          8.3220   13.6580   10.7950 H       1  UNL1        0.0000
     38  C         10.3660   11.5520    4.5580 C.1     1  UNL1        0.0000
     39  N         11.2490   11.2040    3.8940 N.1     1  UNL1        0.0000
@<TRIPOS>BOND
     1     1     2   ar
     2     1     6   ar
     3     1    21    1
     4     2     3   ar
     5     2     7    1
     6     3    38    1
     7     3     4   ar
     8     4     8    1
     9     4     5   ar
    10     5     9    1
    11     5     6   ar
    12     6    27    1
    13    10    11    2
    14    11    22   ar
    15    11    12   ar
    16    12    13   ar
    17    12    18   ar
    18    13    20   ar
    19    13    14   ar
    20    14    23    1
    21    14    15   ar
    22    15    16    1
    23    15    17   ar
    24    17    18   ar
    25    17    24    1
    26    18    19    1
    27    20    25    1
    28    20    21   ar
    29    21    22   ar
    30    22    26    1
    31    27    29    2
    32    27    28    2
    33    27    30    1
    34    30    33    1
    35    30    32    1
    36    30    31    1
    37    31    32    1
    38    31    35    1
    39    31    34    1
    40    32    36    1
    41    32    37    1
    42    38    39    3
