@<TRIPOS>MOLECULE
UNL
 28 29 0 0 0
SMALL
GASTEIGER

@<TRIPOS>ATOM
      1  O          9.1920   11.6150    2.7760 O.2     1  UNL1        0.0000
      2  C          9.9010   11.7600    3.7660 C.2     1  UNL1        0.0000
      3  N         11.2720   11.6200    3.8290 N.am    1  UNL1        0.0000
      4  H         11.6860   11.7700    4.7100 H       1  UNL1        0.0000
      5  C         12.1510   11.2900    2.7760 C.ar    1  UNL1        0.0000
      6  C         12.2900   12.0460    1.6110 C.ar    1  UNL1        0.0000
      7  C         13.1710   11.6400    0.6050 C.ar    1  UNL1        0.0000
      8  C         13.9220   10.4770    0.7550 C.ar    1  UNL1        0.0000
      9  C         13.7960    9.7190    1.9150 C.ar    1  UNL1        0.0000
     10  C         12.9150   10.1240    2.9220 C.ar    1  UNL1        0.0000
     11  H         11.7400   12.9100    1.4930 H       1  UNL1        0.0000
     12  H         13.2660   12.2060   -0.2540 H       1  UNL1        0.0000
     13  H         14.5680   10.1780    0.0080 H       1  UNL1        0.0000
     14  H         14.3530    8.8580    2.0330 H       1  UNL1        0.0000
     15  H         12.8260    9.5590    3.7810 H       1  UNL1        0.0000
     16  C          9.2120   12.0510    5.0550 C.ar    1  UNL1        0.0000
     17  C          8.9430   10.9380    5.8780 C.ar    1  UNL1        0.0000
     18  C          8.3110   11.1130    7.1140 C.ar    1  UNL1        0.0000
     19  C          7.9380   12.3920    7.5430 C.ar    1  UNL1        0.0000
     20  C          8.1870   13.4940    6.7200 C.ar    1  UNL1        0.0000
     21  C          8.8140   13.3300    5.4770 C.ar    1  UNL1        0.0000
     22 CL          9.0170   14.7570    4.5250 Cl      1  UNL1        0.0000
     23  H          9.2140    9.9930    5.5670 H       1  UNL1        0.0000
     24  H          7.4820   12.5200    8.4600 H       1  UNL1        0.0000
     25  H          7.9070   14.4370    7.0310 H       1  UNL1        0.0000
     26  N          8.0390    9.9510    7.9710 N.pl3   1  UNL1        0.0000
     27  O          8.9370    9.1090    8.1000 O.2     1  UNL1        0.0000
     28  O          6.9300    9.8900    8.5170 O.2     1  UNL1        0.0000
@<TRIPOS>BOND
     1     1     2    2
     2     2     3   am
     3     2    16    1
     4     3     5    1
     5     3     4    1
     6     5     6   ar
     7     5    10   ar
     8     6     7   ar
     9     6    11    1
    10     7    12    1
    11     7     8   ar
    12     8    13    1
    13     8     9   ar
    14     9    14    1
    15     9    10   ar
    16    10    15    1
    17    16    21   ar
    18    16    17   ar
    19    17    23    1
    20    17    18   ar
    21    18    19   ar
    22    18    26    1
    23    19    20   ar
    24    19    24    1
    25    20    21   ar
    26    20    25    1
    27    21    22    1
    28    26    27    2
    29    26    28    2
