@<TRIPOS>MOLECULE
UNL
 27 28 0 0 0
SMALL
GASTEIGER

@<TRIPOS>ATOM
      1  O          9.7620   11.2790    2.3240 O.2     1  UNL1        0.0000
      2  C         10.3720   11.8370    3.2320 C.2     1  UNL1        0.0000
      3  N         11.7290   12.0910    3.2350 N.am    1  UNL1        0.0000
      4  H         12.0840   12.5910    4.0050 H       1  UNL1        0.0000
      5  C         12.6610   11.7050    2.2420 C.ar    1  UNL1        0.0000
      6  C         13.0240   12.5060    1.1640 C.ar    1  UNL1        0.0000
      7  C         13.9120   11.9990    0.2310 C.ar    1  UNL1        0.0000
      8  N         14.4570   10.7670    0.3000 N.ar    1  UNL1        0.0000
      9  C         14.1030   10.0130    1.3600 C.ar    1  UNL1        0.0000
     10  C         13.2280   10.4350    2.3500 C.ar    1  UNL1        0.0000
     11  H         12.6390   13.4590    1.0620 H       1  UNL1        0.0000
     12  H         14.1730   12.6000   -0.5670 H       1  UNL1        0.0000
     13  H         14.5050    9.0670    1.4390 H       1  UNL1        0.0000
     14  H         13.0020    9.8230    3.1490 H       1  UNL1        0.0000
     15  C          9.5690   12.2670    4.4200 C.ar    1  UNL1        0.0000
     16  C          9.2420   11.2390    5.3290 C.ar    1  UNL1        0.0000
     17  C          8.5470   11.5190    6.5120 C.ar    1  UNL1        0.0000
     18  C          8.1650   12.8300    6.8090 C.ar    1  UNL1        0.0000
     19  C          8.4800   13.8530    5.9120 C.ar    1  UNL1        0.0000
     20  C          9.1800   13.5820    4.7240 C.ar    1  UNL1        0.0000
     21 CL          9.5360   14.9540    3.7320 Cl      1  UNL1        0.0000
     22  H          9.5170   10.2670    5.1190 H       1  UNL1        0.0000
     23  H          7.6560   13.0400    7.6820 H       1  UNL1        0.0000
     24  H          8.1940   14.8220    6.1240 H       1  UNL1        0.0000
     25  N          8.2300   10.4340    7.4490 N.pl3   1  UNL1        0.0000
     26  O          7.1190   10.4460    7.9940 O.2     1  UNL1        0.0000
     27  O          9.1030    9.5740    7.6420 O.2     1  UNL1        0.0000
@<TRIPOS>BOND
     1     1     2    2
     2     2     3   am
     3     2    15    1
     4     3     5    1
     5     3     4    1
     6     5     6   ar
     7     5    10   ar
     8     6     7   ar
     9     6    11    1
    10     7    12    1
    11     7     8   ar
    12     8     9   ar
    13     9    13    1
    14     9    10   ar
    15    10    14    1
    16    15    20   ar
    17    15    16   ar
    18    16    22    1
    19    16    17   ar
    20    17    18   ar
    21    17    25    1
    22    18    19   ar
    23    18    23    1
    24    19    20   ar
    25    19    24    1
    26    20    21    1
    27    25    27    2
    28    25    26    2
