@<TRIPOS>MOLECULE
UNL
 28 29 0 0 0
SMALL
GASTEIGER

@<TRIPOS>ATOM
      1  C         10.7690   11.5420    2.7440 C.2     1  UNL1        0.0000
      2  N         10.9430   11.9030    4.0670 N.am    1  UNL1        0.0000
      3  O          9.6970   11.2330    2.2330 O.2     1  UNL1        0.0000
      4  H         11.8590   12.1310    4.3500 H       1  UNL1        0.0000
      5 CL         12.8320    9.0340    2.8000 Cl      1  UNL1        0.0000
      6  C         12.9090   10.4460    1.8050 C.ar    1  UNL1        0.0000
      7  C         13.9880   10.5120    0.9100 C.ar    1  UNL1        0.0000
      8  C         14.1640   11.6250    0.0840 C.ar    1  UNL1        0.0000
      9  C         13.2640   12.6900    0.1690 C.ar    1  UNL1        0.0000
     10  C         12.1890   12.6390    1.0660 C.ar    1  UNL1        0.0000
     11  C         11.9860   11.5020    1.8760 C.ar    1  UNL1        0.0000
     12  H         14.6590    9.7290    0.8610 H       1  UNL1        0.0000
     13  H         14.9500   11.6590   -0.5830 H       1  UNL1        0.0000
     14  H         11.5410   13.4400    1.1340 H       1  UNL1        0.0000
     15  N         13.4330   13.8600   -0.7050 N.pl3   1  UNL1        0.0000
     16  O         12.4460   14.2350   -1.3530 O.2     1  UNL1        0.0000
     17  O         14.5440   14.4030   -0.7320 O.2     1  UNL1        0.0000
     18  C          9.9330   11.9780    5.0520 C.ar    1  UNL1        0.0000
     19  C          9.0700   13.0620    5.1890 C.ar    1  UNL1        0.0000
     20  C          8.1540   13.0500    6.2320 C.ar    1  UNL1        0.0000
     21  N          8.0430   12.0310    7.1190 N.ar    1  UNL1        0.0000
     22  C          8.8720   10.9820    6.9470 C.ar    1  UNL1        0.0000
     23  C          9.8120   10.9030    5.9330 C.ar    1  UNL1        0.0000
     24  H          9.1090   13.8550    4.5300 H       1  UNL1        0.0000
     25  H          8.8020   10.1930    7.6090 H       1  UNL1        0.0000
     26  H         10.4100   10.0680    5.8320 H       1  UNL1        0.0000
     27  C          7.2550   14.1570    6.4300 C.1     1  UNL1        0.0000
     28  N          6.5150   15.0350    6.6070 N.1     1  UNL1        0.0000
@<TRIPOS>BOND
     1     1    11    1
     2     1     3    2
     3     1     2   am
     4     2     4    1
     5     2    18    1
     6     5     6    1
     7     6     7   ar
     8     6    11   ar
     9     7     8   ar
    10     7    12    1
    11     8    13    1
    12     8     9   ar
    13     9    15    1
    14     9    10   ar
    15    10    14    1
    16    10    11   ar
    17    15    16    2
    18    15    17    2
    19    18    19   ar
    20    18    23   ar
    21    19    24    1
    22    19    20   ar
    23    20    27    1
    24    20    21   ar
    25    21    22   ar
    26    22    23   ar
    27    22    25    1
    28    23    26    1
    29    27    28    3
