@<TRIPOS>MOLECULE
UNL
 28 29 0 0 0
SMALL
GASTEIGER

@<TRIPOS>ATOM
      1  C          9.7260   11.7380    3.9150 C.2     1  UNL1        0.0000
      2  N         11.0970   11.5580    3.8750 N.am    1  UNL1        0.0000
      3  O          8.9820   11.7090    2.9410 O.2     1  UNL1        0.0000
      4  H         11.5830   11.6220    4.7290 H       1  UNL1        0.0000
      5 CL          8.9630   14.7450    4.8680 Cl      1  UNL1        0.0000
      6  C          8.7040   13.2670    5.7260 C.ar    1  UNL1        0.0000
      7  C          8.0840   13.3800    6.9800 C.ar    1  UNL1        0.0000
      8  C          7.8580   12.2510    7.7700 C.ar    1  UNL1        0.0000
      9  C          8.2780   10.9990    7.3120 C.ar    1  UNL1        0.0000
     10  C          8.9100   10.8760    6.0680 C.ar    1  UNL1        0.0000
     11  C          9.1030   12.0080    5.2480 C.ar    1  UNL1        0.0000
     12  H          7.7920   14.3090    7.3230 H       1  UNL1        0.0000
     13  H          7.3860   12.3390    8.6830 H       1  UNL1        0.0000
     14  H          9.2380    9.9500    5.7500 H       1  UNL1        0.0000
     15  N          8.0290    9.8020    8.1280 N.pl3   1  UNL1        0.0000
     16  O          6.9530    9.7410    8.7390 O.2     1  UNL1        0.0000
     17  O          8.9020    8.9240    8.1440 O.2     1  UNL1        0.0000
     18  C         11.8610   11.2910    2.7170 C.ar    1  UNL1        0.0000
     19  C         11.4930   11.6910    1.4320 C.ar    1  UNL1        0.0000
     20  C         12.2570   11.2910    0.3340 C.ar    1  UNL1        0.0000
     21  C         13.3890   10.5250    0.5640 C.ar    1  UNL1        0.0000
     22  N         13.8150   10.1690    1.7980 N.ar    1  UNL1        0.0000
     23  C         13.0460   10.5640    2.8410 C.ar    1  UNL1        0.0000
     24  H         10.6580   12.2820    1.2940 H       1  UNL1        0.0000
     25  H         13.9370   10.2070   -0.2510 H       1  UNL1        0.0000
     26  H         13.3570   10.3110    3.7910 H       1  UNL1        0.0000
     27  C         11.8800   11.6410   -0.9950 C.1     1  UNL1        0.0000
     28  N         11.5610   11.9340   -2.0740 N.1     1  UNL1        0.0000
@<TRIPOS>BOND
     1     1     3    2
     2     1     2   am
     3     1    11    1
     4     2    18    1
     5     2     4    1
     6     5     6    1
     7     6    11   ar
     8     6     7   ar
     9     7    12    1
    10     7     8   ar
    11     8     9   ar
    12     8    13    1
    13     9    10   ar
    14     9    15    1
    15    10    11   ar
    16    10    14    1
    17    15    17    2
    18    15    16    2
    19    18    19   ar
    20    18    23   ar
    21    19    20   ar
    22    19    24    1
    23    20    27    1
    24    20    21   ar
    25    21    25    1
    26    21    22   ar
    27    22    23   ar
    28    23    26    1
    29    27    28    3
