@<TRIPOS>MOLECULE
UNL
 28 29 0 0 0
SMALL
GASTEIGER

@<TRIPOS>ATOM
      1  C         10.0250   11.7600    3.0800 C.2     1  UNL1        0.0000
      2  N         10.3040   11.8900    4.4260 N.am    1  UNL1        0.0000
      3  O          8.8920   11.8450    2.6120 O.2     1  UNL1        0.0000
      4  H         11.2490   12.0140    4.6750 H       1  UNL1        0.0000
      5 CL         12.6090    9.8710    3.8620 Cl      1  UNL1        0.0000
      6  C         12.2700   10.6580    2.3590 C.ar    1  UNL1        0.0000
      7  C         13.1980   10.4120    1.3320 C.ar    1  UNL1        0.0000
      8  C         13.0340   10.9710    0.0640 C.ar    1  UNL1        0.0000
      9  C         11.9390   11.8010   -0.1770 C.ar    1  UNL1        0.0000
     10  C         11.0160   12.0680    0.8450 C.ar    1  UNL1        0.0000
     11  C         11.1560   11.4850    2.1260 C.ar    1  UNL1        0.0000
     12  H         14.0150    9.8080    1.5180 H       1  UNL1        0.0000
     13  H         13.7140   10.7720   -0.6870 H       1  UNL1        0.0000
     14  H         10.2220   12.6990    0.6570 H       1  UNL1        0.0000
     15  N         11.7360   12.3710   -1.5180 N.pl3   1  UNL1        0.0000
     16  O         11.9260   13.5880   -1.6550 O.2     1  UNL1        0.0000
     17  O         11.3930   11.6030   -2.4250 O.2     1  UNL1        0.0000
     18  C          9.3620   11.8610    5.4800 C.ar    1  UNL1        0.0000
     19  C          9.0010   10.7230    6.1990 C.ar    1  UNL1        0.0000
     20  N          8.1760   10.7300    7.2800 N.ar    1  UNL1        0.0000
     21  C          7.6700   11.9240    7.6620 C.ar    1  UNL1        0.0000
     22  C          7.9360   13.1080    6.9880 C.ar    1  UNL1        0.0000
     23  C          8.7960   13.0730    5.8860 C.ar    1  UNL1        0.0000
     24  H          9.3850    9.8160    5.8920 H       1  UNL1        0.0000
     25  H          7.5080   13.9960    7.2940 H       1  UNL1        0.0000
     26  H          9.0130   13.9410    5.3730 H       1  UNL1        0.0000
     27  C          6.8610   11.9170    8.8510 C.1     1  UNL1        0.0000
     28  N          6.2210   11.9620    9.8200 N.1     1  UNL1        0.0000
@<TRIPOS>BOND
     1     1    11    1
     2     1     3    2
     3     1     2   am
     4     2     4    1
     5     2    18    1
     6     5     6    1
     7     6     7   ar
     8     6    11   ar
     9     7     8   ar
    10     7    12    1
    11     8    13    1
    12     8     9   ar
    13     9    15    1
    14     9    10   ar
    15    10    14    1
    16    10    11   ar
    17    15    17    2
    18    15    16    2
    19    18    23   ar
    20    18    19   ar
    21    19    24    1
    22    19    20   ar
    23    20    21   ar
    24    21    22   ar
    25    21    27    1
    26    22    23   ar
    27    22    25    1
    28    23    26    1
    29    27    28    3
