@<TRIPOS>MOLECULE
UNL
 30 31 0 0 0
SMALL
GASTEIGER

@<TRIPOS>ATOM
      1  C         11.0680   11.2480    3.1000 C.2     1  UNL1        0.0000
      2  N          9.7930   11.6390    3.4530 N.am    1  UNL1        0.0000
      3  O         11.9280   10.8620    3.8840 O.2     1  UNL1        0.0000
      4  H          9.1480   11.7720    2.7200 H       1  UNL1        0.0000
      5 CL         13.8870   10.0880    1.9640 Cl      1  UNL1        0.0000
      6  C         12.6240   10.8610    1.0720 C.ar    1  UNL1        0.0000
      7  C         12.8350   10.9970   -0.3100 C.ar    1  UNL1        0.0000
      8  C         11.8910   11.6340   -1.1190 C.ar    1  UNL1        0.0000
      9  C         10.7290   12.1500   -0.5400 C.ar    1  UNL1        0.0000
     10  C         10.5110   12.0230    0.8370 C.ar    1  UNL1        0.0000
     11  C         11.4520   11.3640    1.6580 C.ar    1  UNL1        0.0000
     12  H         13.6990   10.6230   -0.7320 H       1  UNL1        0.0000
     13  H         12.0510   11.7220   -2.1340 H       1  UNL1        0.0000
     14  H          9.6530   12.4160    1.2560 H       1  UNL1        0.0000
     15  N          9.7250   12.8140   -1.3840 N.pl3   1  UNL1        0.0000
     16  O         10.1120   13.3090   -2.4510 O.2     1  UNL1        0.0000
     17  O          8.5560   12.8330   -0.9800 O.2     1  UNL1        0.0000
     18  C          9.3230   11.8670    4.7670 C.ar    1  UNL1        0.0000
     19  C          9.3940   10.9470    5.8090 C.ar    1  UNL1        0.0000
     20  N          9.0070   11.2060    7.0850 N.ar    1  UNL1        0.0000
     21  C          8.5200   12.4390    7.3360 C.ar    1  UNL1        0.0000
     22  C          8.3950   13.4330    6.3740 C.ar    1  UNL1        0.0000
     23  C          8.7990   13.1270    5.0680 C.ar    1  UNL1        0.0000
     24  H          9.7650   10.0070    5.6000 H       1  UNL1        0.0000
     25  H          8.2230   12.6570    8.3000 H       1  UNL1        0.0000
     26  H          8.7090   13.8370    4.3230 H       1  UNL1        0.0000
     27  C          7.8300   14.7750    6.7170 C.3     1  UNL1        0.0000
     28  H          8.6220   15.4290    7.0190 H       1  UNL1        0.0000
     29  H          7.1270   14.6730    7.5170 H       1  UNL1        0.0000
     30  H          7.3380   15.1840    5.8590 H       1  UNL1        0.0000
@<TRIPOS>BOND
     1     1    11    1
     2     1     2   am
     3     1     3    2
     4     2     4    1
     5     2    18    1
     6     5     6    1
     7     6     7   ar
     8     6    11   ar
     9     7     8   ar
    10     7    12    1
    11     8    13    1
    12     8     9   ar
    13     9    15    1
    14     9    10   ar
    15    10    14    1
    16    10    11   ar
    17    15    16    2
    18    15    17    2
    19    18    23   ar
    20    18    19   ar
    21    19    24    1
    22    19    20   ar
    23    20    21   ar
    24    21    22   ar
    25    21    25    1
    26    22    23   ar
    27    22    27    1
    28    23    26    1
    29    27    30    1
    30    27    28    1
    31    27    29    1
