@<TRIPOS>MOLECULE
UNL
 27 28 0 0 0
SMALL
GASTEIGER

@<TRIPOS>ATOM
      1  C         10.9710   11.3680    3.1540 C.2     1  UNL1        0.0000
      2  N          9.7710   11.9200    3.5570 N.am    1  UNL1        0.0000
      3  O         11.7960   10.8500    3.8990 O.2     1  UNL1        0.0000
      4  H          9.2000   12.3040    2.8520 H       1  UNL1        0.0000
      5 CL         13.7590   10.1750    1.9730 Cl      1  UNL1        0.0000
      6  C         12.4630   10.9100    1.0950 C.ar    1  UNL1        0.0000
      7  C         12.6420   11.0070   -0.2950 C.ar    1  UNL1        0.0000
      8  C         11.6780   11.6220   -1.0980 C.ar    1  UNL1        0.0000
      9  C         10.5290   12.1500   -0.5050 C.ar    1  UNL1        0.0000
     10  C         10.3400   12.0570    0.8790 C.ar    1  UNL1        0.0000
     11  C         11.2990   11.4200    1.6940 C.ar    1  UNL1        0.0000
     12  H         13.4970   10.6220   -0.7280 H       1  UNL1        0.0000
     13  H         11.8130   11.6830   -2.1190 H       1  UNL1        0.0000
     14  H          9.4900   12.4580    1.3080 H       1  UNL1        0.0000
     15  N          9.5110   12.8010   -1.3390 N.pl3   1  UNL1        0.0000
     16  O          9.8990   13.3940   -2.3560 O.2     1  UNL1        0.0000
     17  O          8.3280   12.7120   -0.9850 O.2     1  UNL1        0.0000
     18  C          9.2830   11.9900    4.8820 C.ar    1  UNL1        0.0000
     19  C          9.1340   10.8890    5.7210 C.ar    1  UNL1        0.0000
     20  C          8.6040   11.0720    6.9920 C.ar    1  UNL1        0.0000
     21  F          8.4480   10.0250    7.8130 F       1  UNL1        0.0000
     22  C          8.2430   12.3420    7.4010 C.ar    1  UNL1        0.0000
     23  N          8.3980   13.4440    6.6310 N.ar    1  UNL1        0.0000
     24  C          8.9190   13.2390    5.3960 C.ar    1  UNL1        0.0000
     25  H          9.4130    9.9480    5.4020 H       1  UNL1        0.0000
     26  H          7.8340   12.4560    8.3410 H       1  UNL1        0.0000
     27  H          9.0570   14.0640    4.7910 H       1  UNL1        0.0000
@<TRIPOS>BOND
     1     1    11    1
     2     1     2   am
     3     1     3    2
     4     2     4    1
     5     2    18    1
     6     5     6    1
     7     6     7   ar
     8     6    11   ar
     9     7     8   ar
    10     7    12    1
    11     8    13    1
    12     8     9   ar
    13     9    15    1
    14     9    10   ar
    15    10    14    1
    16    10    11   ar
    17    15    16    2
    18    15    17    2
    19    18    24   ar
    20    18    19   ar
    21    19    25    1
    22    19    20   ar
    23    20    22   ar
    24    20    21    1
    25    22    23   ar
    26    22    26    1
    27    23    24   ar
    28    24    27    1
