@<TRIPOS>MOLECULE
UNL
 30 31 0 0 0
SMALL
GASTEIGER

@<TRIPOS>ATOM
      1  C          9.6550   12.1810    2.2200 C.2     1  UNL1        0.0000
      2  N         10.2720   12.1510    3.4570 N.am    1  UNL1        0.0000
      3  O          8.4600   12.3610    2.0300 O.2     1  UNL1        0.0000
      4  H         11.2450   11.9970    3.4700 H       1  UNL1        0.0000
      5 CL          8.6270   12.8850   -0.7800 Cl      1  UNL1        0.0000
      6  C         10.1670   12.2570   -0.3080 C.ar    1  UNL1        0.0000
      7  C         11.0820   12.0230   -1.3450 C.ar    1  UNL1        0.0000
      8  C         12.3440   11.4840   -1.0780 C.ar    1  UNL1        0.0000
      9  C         12.6850   11.1580    0.2370 C.ar    1  UNL1        0.0000
     10  C         11.7760   11.3780    1.2790 C.ar    1  UNL1        0.0000
     11  C         10.5140   11.9540    1.0170 C.ar    1  UNL1        0.0000
     12  H         10.8220   12.2520   -2.3170 H       1  UNL1        0.0000
     13  H         13.0160   11.3280   -1.8450 H       1  UNL1        0.0000
     14  H         12.0310   11.1190    2.2440 H       1  UNL1        0.0000
     15  N         14.0120   10.5990    0.5310 N.pl3   1  UNL1        0.0000
     16  O         14.1470    9.9810    1.5960 O.2     1  UNL1        0.0000
     17  O         14.9080   10.7710   -0.3040 O.2     1  UNL1        0.0000
     18  C          9.6310   12.3230    4.7040 C.ar    1  UNL1        0.0000
     19  C          8.8960   13.4540    5.0530 C.ar    1  UNL1        0.0000
     20  C          8.3600   13.5780    6.3420 C.ar    1  UNL1        0.0000
     21  C          8.5690   12.5350    7.2320 C.ar    1  UNL1        0.0000
     22  N          9.2310   11.4000    6.9170 N.ar    1  UNL1        0.0000
     23  C          9.7400   11.3190    5.6650 C.ar    1  UNL1        0.0000
     24  H          8.7460   14.2030    4.3590 H       1  UNL1        0.0000
     25  H          8.1980   12.6320    8.1900 H       1  UNL1        0.0000
     26  H         10.2420   10.4560    5.4040 H       1  UNL1        0.0000
     27  C          7.6110   14.7950    6.7850 C.3     1  UNL1        0.0000
     28  F          8.1750   15.9660    6.3790 F       1  UNL1        0.0000
     29  F          6.3320   14.8180    6.3190 F       1  UNL1        0.0000
     30  F          7.5130   14.8760    8.1400 F       1  UNL1        0.0000
@<TRIPOS>BOND
     1     1    11    1
     2     1     3    2
     3     1     2   am
     4     2     4    1
     5     2    18    1
     6     5     6    1
     7     6     7   ar
     8     6    11   ar
     9     7    12    1
    10     7     8   ar
    11     8    13    1
    12     8     9   ar
    13     9    15    1
    14     9    10   ar
    15    10    11   ar
    16    10    14    1
    17    15    17    2
    18    15    16    2
    19    18    19   ar
    20    18    23   ar
    21    19    24    1
    22    19    20   ar
    23    20    27    1
    24    20    21   ar
    25    21    22   ar
    26    21    25    1
    27    22    23   ar
    28    23    26    1
    29    27    29    1
    30    27    28    1
    31    27    30    1
