@<TRIPOS>MOLECULE
UNL
 31 32 0 0 0
SMALL
GASTEIGER

@<TRIPOS>ATOM
      1  C         10.9040   11.4910    2.6980 C.2     1  UNL1        0.0000
      2  N         11.0510   11.8280    4.0320 N.am    1  UNL1        0.0000
      3  O          9.8400   11.2020    2.1590 O.2     1  UNL1        0.0000
      4  H         11.9610   12.0290    4.3490 H       1  UNL1        0.0000
      5 CL         12.9220    8.9520    2.7380 Cl      1  UNL1        0.0000
      6  C         13.0420   10.3820    1.7740 C.ar    1  UNL1        0.0000
      7  C         14.1360   10.4500    0.8980 C.ar    1  UNL1        0.0000
      8  C         14.3430   11.5770    0.0970 C.ar    1  UNL1        0.0000
      9  C         13.4600   12.6560    0.1930 C.ar    1  UNL1        0.0000
     10  C         12.3730   12.6040    1.0740 C.ar    1  UNL1        0.0000
     11  C         12.1350   11.4520    1.8510 C.ar    1  UNL1        0.0000
     12  H         14.7960    9.6590    0.8440 H       1  UNL1        0.0000
     13  H         15.1390   11.6110   -0.5580 H       1  UNL1        0.0000
     14  H         11.7400   13.4160    1.1540 H       1  UNL1        0.0000
     15  N         13.6570   13.8380   -0.6570 N.pl3   1  UNL1        0.0000
     16  O         14.8120   14.2700   -0.7760 O.2     1  UNL1        0.0000
     17  O         12.6620   14.3230   -1.2100 O.2     1  UNL1        0.0000
     18  C         10.0050   11.9110    4.9770 C.ar    1  UNL1        0.0000
     19  C          9.2130   13.0410    5.1610 C.ar    1  UNL1        0.0000
     20  C          8.2680   13.0950    6.1980 C.ar    1  UNL1        0.0000
     21  C          8.1390   11.9770    7.0150 C.ar    1  UNL1        0.0000
     22  N          8.8430   10.8300    6.8130 N.ar    1  UNL1        0.0000
     23  C          9.7450   10.8220    5.8020 C.ar    1  UNL1        0.0000
     24  H          9.3220   13.8490    4.5270 H       1  UNL1        0.0000
     25  H         10.2730    9.9500    5.6330 H       1  UNL1        0.0000
     26  C          7.4410   14.3200    6.4350 C.3     1  UNL1        0.0000
     27  F          7.7100   15.3300    5.5620 F       1  UNL1        0.0000
     28  F          6.1090   14.0780    6.3150 F       1  UNL1        0.0000
     29  F          7.6300   14.8430    7.6750 F       1  UNL1        0.0000
     30  C          7.2790   11.9590    8.1720 C.1     1  UNL1        0.0000
     31  N          6.5630   11.9210    9.0830 N.1     1  UNL1        0.0000
@<TRIPOS>BOND
     1     1    11    1
     2     1     3    2
     3     1     2   am
     4     2     4    1
     5     2    18    1
     6     5     6    1
     7     6     7   ar
     8     6    11   ar
     9     7     8   ar
    10     7    12    1
    11     8    13    1
    12     8     9   ar
    13     9    15    1
    14     9    10   ar
    15    10    14    1
    16    10    11   ar
    17    15    17    2
    18    15    16    2
    19    18    19   ar
    20    18    23   ar
    21    19    24    1
    22    19    20   ar
    23    20    26    1
    24    20    21   ar
    25    21    22   ar
    26    21    30    1
    27    22    23   ar
    28    23    25    1
    29    26    27    1
    30    26    28    1
    31    26    29    1
    32    30    31    3
