@<TRIPOS>MOLECULE
UNL
 30 31 0 0 0
SMALL
GASTEIGER

@<TRIPOS>ATOM
      1  C         10.0290   11.6700    3.6400 C.2     1  UNL1        0.0000
      2  N         11.3940   11.4510    3.6730 N.am    1  UNL1        0.0000
      3  O          9.3360   11.6080    2.6300 O.2     1  UNL1        0.0000
      4  H         11.8110   11.3580    4.5600 H       1  UNL1        0.0000
      5 CL          9.2760   14.7670    4.2870 Cl      1  UNL1        0.0000
      6  C          8.9550   13.3760    5.2590 C.ar    1  UNL1        0.0000
      7  C          8.2810   13.6080    6.4710 C.ar    1  UNL1        0.0000
      8  C          7.9820   12.5570    7.3410 C.ar    1  UNL1        0.0000
      9  C          8.3770   11.2600    7.0060 C.ar    1  UNL1        0.0000
     10  C          9.0690   11.0190    5.8110 C.ar    1  UNL1        0.0000
     11  C          9.3480   12.0740    4.9110 C.ar    1  UNL1        0.0000
     12  H          8.0030   14.5700    6.7210 H       1  UNL1        0.0000
     13  H          7.4740   12.7360    8.2200 H       1  UNL1        0.0000
     14  H          9.3780   10.0620    5.5850 H       1  UNL1        0.0000
     15  N          8.0350   10.1420    7.8950 N.pl3   1  UNL1        0.0000
     16  O          8.8750    9.2410    8.0300 O.2     1  UNL1        0.0000
     17  O          6.9330   10.1680    8.4610 O.2     1  UNL1        0.0000
     18  C         12.2460   11.3460    2.5470 C.ar    1  UNL1        0.0000
     19  C         12.4770   12.3650    1.6280 C.ar    1  UNL1        0.0000
     20  N         13.3950   12.3010    0.6270 N.ar    1  UNL1        0.0000
     21  C         14.1160   11.1660    0.5090 C.ar    1  UNL1        0.0000
     22  C         13.9160   10.0720    1.3440 C.ar    1  UNL1        0.0000
     23  C         12.9750   10.1690    2.3740 C.ar    1  UNL1        0.0000
     24  H         11.9140   13.2250    1.7110 H       1  UNL1        0.0000
     25  H         14.4540    9.2030    1.2060 H       1  UNL1        0.0000
     26  H         12.8190    9.3680    3.0060 H       1  UNL1        0.0000
     27  C         15.2070   11.1570   -0.5190 C.3     1  UNL1        0.0000
     28  H         14.8240   10.7750   -1.4420 H       1  UNL1        0.0000
     29  H         16.0090   10.5330   -0.1810 H       1  UNL1        0.0000
     30  H         15.5670   12.1530   -0.6660 H       1  UNL1        0.0000
@<TRIPOS>BOND
     1     1     3    2
     2     1     2   am
     3     1    11    1
     4     2    18    1
     5     2     4    1
     6     5     6    1
     7     6    11   ar
     8     6     7   ar
     9     7    12    1
    10     7     8   ar
    11     8     9   ar
    12     8    13    1
    13     9    10   ar
    14     9    15    1
    15    10    11   ar
    16    10    14    1
    17    15    16    2
    18    15    17    2
    19    18    19   ar
    20    18    23   ar
    21    19    20   ar
    22    19    24    1
    23    20    21   ar
    24    21    27    1
    25    21    22   ar
    26    22    25    1
    27    22    23   ar
    28    23    26    1
    29    27    28    1
    30    27    30    1
    31    27    29    1
