@<TRIPOS>MOLECULE
UNL
 30 31 0 0 0
SMALL
GASTEIGER

@<TRIPOS>ATOM
      1  C         10.8930   11.5090    2.7020 C.2     1  UNL1        0.0000
      2  N         11.0730   11.8490    4.0300 N.am    1  UNL1        0.0000
      3  O          9.8200   11.2180    2.1800 O.2     1  UNL1        0.0000
      4  H         11.9930   12.0520    4.3160 H       1  UNL1        0.0000
      5 CL         12.9380    8.9820    2.7170 Cl      1  UNL1        0.0000
      6  C         13.0260   10.4130    1.7500 C.ar    1  UNL1        0.0000
      7  C         14.1140   10.4940    0.8680 C.ar    1  UNL1        0.0000
      8  C         14.3050   11.6240    0.0700 C.ar    1  UNL1        0.0000
      9  C         13.4070   12.6890    0.1650 C.ar    1  UNL1        0.0000
     10  C         12.3190   12.6210    1.0430 C.ar    1  UNL1        0.0000
     11  C         12.1060   11.4710    1.8310 C.ar    1  UNL1        0.0000
     12  H         14.7830    9.7090    0.8080 H       1  UNL1        0.0000
     13  H         15.1030   11.6710   -0.5850 H       1  UNL1        0.0000
     14  H         11.6690   13.4180    1.1140 H       1  UNL1        0.0000
     15  N         13.5990   13.8830   -0.6670 N.pl3   1  UNL1        0.0000
     16  O         14.7500   14.3420   -0.7570 O.2     1  UNL1        0.0000
     17  O         12.6070   14.3580   -1.2370 O.2     1  UNL1        0.0000
     18  C         10.0640   11.9340    5.0140 C.ar    1  UNL1        0.0000
     19  C          9.2120   13.0250    5.1670 C.ar    1  UNL1        0.0000
     20  C          8.2870   13.0560    6.2160 C.ar    1  UNL1        0.0000
     21  C          8.2390   11.9590    7.0670 C.ar    1  UNL1        0.0000
     22  N          9.0140   10.8600    6.9290 N.ar    1  UNL1        0.0000
     23  C          9.9020   10.8750    5.9060 C.ar    1  UNL1        0.0000
     24  H          9.2620   13.8140    4.5030 H       1  UNL1        0.0000
     25  H          7.5700   11.9840    7.8530 H       1  UNL1        0.0000
     26  H         10.4990   10.0440    5.7780 H       1  UNL1        0.0000
     27  C          7.3810   14.2290    6.4220 C.3     1  UNL1        0.0000
     28  H          7.4950   14.5950    7.4200 H       1  UNL1        0.0000
     29  H          6.3670   13.9280    6.2650 H       1  UNL1        0.0000
     30  H          7.6360   15.0010    5.7260 H       1  UNL1        0.0000
@<TRIPOS>BOND
     1     1    11    1
     2     1     3    2
     3     1     2   am
     4     2     4    1
     5     2    18    1
     6     5     6    1
     7     6     7   ar
     8     6    11   ar
     9     7     8   ar
    10     7    12    1
    11     8    13    1
    12     8     9   ar
    13     9    15    1
    14     9    10   ar
    15    10    14    1
    16    10    11   ar
    17    15    17    2
    18    15    16    2
    19    18    19   ar
    20    18    23   ar
    21    19    24    1
    22    19    20   ar
    23    20    27    1
    24    20    21   ar
    25    21    22   ar
    26    21    25    1
    27    22    23   ar
    28    23    26    1
    29    27    30    1
    30    27    29    1
    31    27    28    1
