@<TRIPOS>MOLECULE
UNL
 30 31 0 0 0
SMALL
GASTEIGER

@<TRIPOS>ATOM
      1  C         10.9630   11.6160    2.3990 C.2     1  UNL1        0.0000
      2  N         10.9380   12.4070    3.5320 N.am    1  UNL1        0.0000
      3  O         10.0510   10.8740    2.0440 O.2     1  UNL1        0.0000
      4  H         11.6440   13.0870    3.6190 H       1  UNL1        0.0000
      5 CL         13.0370    9.1100    2.4040 Cl      1  UNL1        0.0000
      6  C         13.1460   10.5740    1.4890 C.ar    1  UNL1        0.0000
      7  C         14.2580   10.6940    0.6410 C.ar    1  UNL1        0.0000
      8  C         14.4530   11.8450   -0.1260 C.ar    1  UNL1        0.0000
      9  C         13.5340   12.8930   -0.0350 C.ar    1  UNL1        0.0000
     10  C         12.4250   12.7850    0.8130 C.ar    1  UNL1        0.0000
     11  C         12.2110   11.6160    1.5770 C.ar    1  UNL1        0.0000
     12  H         14.9400    9.9220    0.5830 H       1  UNL1        0.0000
     13  H         15.2690   11.9220   -0.7520 H       1  UNL1        0.0000
     14  H         11.7570   13.5690    0.8810 H       1  UNL1        0.0000
     15  N         13.7200   14.1050   -0.8460 N.pl3   1  UNL1        0.0000
     16  O         12.7120   14.6000   -1.3700 O.2     1  UNL1        0.0000
     17  O         14.8650   14.5620   -0.9460 O.2     1  UNL1        0.0000
     18  C          9.9900   12.3260    4.5790 C.ar    1  UNL1        0.0000
     19  C          9.8990   11.2810    5.4920 C.ar    1  UNL1        0.0000
     20  N          9.0600   11.2680    6.5610 N.ar    1  UNL1        0.0000
     21  C          8.2450   12.3420    6.7460 C.ar    1  UNL1        0.0000
     22  C          8.2360   13.4100    5.8470 C.ar    1  UNL1        0.0000
     23  C          9.1180   13.4000    4.7620 C.ar    1  UNL1        0.0000
     24  H         10.5100   10.4610    5.3490 H       1  UNL1        0.0000
     25  H          7.5840   14.1980    5.9810 H       1  UNL1        0.0000
     26  H          9.1250   14.1890    4.0960 H       1  UNL1        0.0000
     27  C          7.3520   12.4030    7.9790 C.3     1  UNL1        0.0000
     28  F          7.8130   13.2120    8.9750 F       1  UNL1        0.0000
     29  F          6.0990   12.8620    7.6830 F       1  UNL1        0.0000
     30  F          7.1620   11.1780    8.5510 F       1  UNL1        0.0000
@<TRIPOS>BOND
     1     1    11    1
     2     1     3    2
     3     1     2   am
     4     2     4    1
     5     2    18    1
     6     5     6    1
     7     6     7   ar
     8     6    11   ar
     9     7     8   ar
    10     7    12    1
    11     8    13    1
    12     8     9   ar
    13     9    15    1
    14     9    10   ar
    15    10    14    1
    16    10    11   ar
    17    15    16    2
    18    15    17    2
    19    18    23   ar
    20    18    19   ar
    21    19    24    1
    22    19    20   ar
    23    20    21   ar
    24    21    22   ar
    25    21    27    1
    26    22    23   ar
    27    22    25    1
    28    23    26    1
    29    27    29    1
    30    27    30    1
    31    27    28    1
