@<TRIPOS>MOLECULE
UNL
 28 29 0 0 0
SMALL
GASTEIGER

@<TRIPOS>ATOM
      1  C         11.0710   11.3310    2.8470 C.2     1  UNL1        0.0000
      2  N          9.7630   11.5680    3.1930 N.am    1  UNL1        0.0000
      3  C          9.1940   11.4480    4.4640 C.ar    1  UNL1        0.0000
      4  N          7.8430   11.5360    4.4750 N.ar    1  UNL1        0.0000
      5  C          7.2170   11.3760    5.6710 C.ar    1  UNL1        0.0000
      6  C          7.8750   11.1530    6.8710 C.ar    1  UNL1        0.0000
      7  C          9.2630   11.1090    6.8430 C.ar    1  UNL1        0.0000
      8  C          9.9300   11.2580    5.6260 C.ar    1  UNL1        0.0000
      9  O         11.9400   10.9140    3.6070 O.2     1  UNL1        0.0000
     10  H          9.1610   11.8530    2.4670 H       1  UNL1        0.0000
     11  H          6.1860   11.4260    5.6870 H       1  UNL1        0.0000
     12  H          9.7970   10.9680    7.7150 H       1  UNL1        0.0000
     13  H         10.9620   11.2270    5.5900 H       1  UNL1        0.0000
     14 CL         13.7890   10.0570    1.6560 Cl      1  UNL1        0.0000
     15  C         12.6090   10.9960    0.8150 C.ar    1  UNL1        0.0000
     16  C         12.8190   11.1720   -0.5620 C.ar    1  UNL1        0.0000
     17  C         11.8980   11.8780   -1.3430 C.ar    1  UNL1        0.0000
     18  C         10.7640   12.4250   -0.7370 C.ar    1  UNL1        0.0000
     19  C         10.5480   12.2600    0.6370 C.ar    1  UNL1        0.0000
     20  C         11.4670   11.5360    1.4240 C.ar    1  UNL1        0.0000
     21  H         13.6630   10.7750   -1.0040 H       1  UNL1        0.0000
     22  H         12.0540   11.9930   -2.3560 H       1  UNL1        0.0000
     23  H          9.7110   12.6740    1.0770 H       1  UNL1        0.0000
     24  N          9.7850   13.1620   -1.5440 N.pl3   1  UNL1        0.0000
     25  O          8.5860   13.0200   -1.2590 O.2     1  UNL1        0.0000
     26  O         10.2150   13.8750   -2.4610 O.2     1  UNL1        0.0000
     27  C          7.1450   10.9700    8.0830 C.1     1  UNL1        0.0000
     28  N          6.5420   10.8160    9.0630 N.1     1  UNL1        0.0000
@<TRIPOS>BOND
     1     1    20    1
     2     1     2   am
     3     1     9    2
     4     2    10    1
     5     2     3    1
     6     3     4   ar
     7     3     8   ar
     8     4     5   ar
     9     5    11    1
    10     5     6   ar
    11     6     7   ar
    12     6    27    1
    13     7     8   ar
    14     7    12    1
    15     8    13    1
    16    14    15    1
    17    15    16   ar
    18    15    20   ar
    19    16    17   ar
    20    16    21    1
    21    17    22    1
    22    17    18   ar
    23    18    24    1
    24    18    19   ar
    25    19    23    1
    26    19    20   ar
    27    24    26    2
    28    24    25    2
    29    27    28    3
