@<TRIPOS>MOLECULE
UNL
 34 35 0 0 0
SMALL
GASTEIGER

@<TRIPOS>ATOM
      1  C          6.9080   11.4860    7.6630 C.2     1  UNL1        0.0000
      2  N          8.0680   12.2030    7.4470 N.am    1  UNL1        0.0000
      3  O          6.2500   10.9010    6.8080 O.2     1  UNL1        0.0000
      4  H          8.4380   12.6810    8.2250 H       1  UNL1        0.0000
      5 CL          7.2660    8.8850    9.5470 Cl      1  UNL1        0.0000
      6  C          6.5030   10.3810    9.9530 C.ar    1  UNL1        0.0000
      7  C          5.9630   10.4720   11.2460 C.ar    1  UNL1        0.0000
      8  C          5.2930   11.6260   11.6600 C.ar    1  UNL1        0.0000
      9  C          5.1520   12.6940   10.7680 C.ar    1  UNL1        0.0000
     10  C          5.6840   12.6140    9.4760 C.ar    1  UNL1        0.0000
     11  C          6.3800   11.4600    9.0610 C.ar    1  UNL1        0.0000
     12  H          6.0630    9.6770   11.8970 H       1  UNL1        0.0000
     13  H          4.9070   11.6900   12.6150 H       1  UNL1        0.0000
     14  H          5.5660   13.4030    8.8230 H       1  UNL1        0.0000
     15  N          4.4500   13.9130   11.1970 N.pl3   1  UNL1        0.0000
     16  O          4.8440   14.4640   12.2330 O.2     1  UNL1        0.0000
     17  O          3.5140   14.3150   10.4930 O.2     1  UNL1        0.0000
     18  C          8.7850   12.3260    6.2370 C.ar    1  UNL1        0.0000
     19  C          8.6290   13.3860    5.3390 C.ar    1  UNL1        0.0000
     20  C          9.2980   13.3840    4.1100 C.ar    1  UNL1        0.0000
     21  C         10.1420   12.3230    3.7820 C.ar    1  UNL1        0.0000
     22  C         10.3440   11.2790    4.6840 C.ar    1  UNL1        0.0000
     23  C          9.6740   11.2890    5.9120 C.ar    1  UNL1        0.0000
     24  H          8.0140   14.1770    5.5860 H       1  UNL1        0.0000
     25  H          9.1670   14.1660    3.4480 H       1  UNL1        0.0000
     26  H         10.9840   10.5040    4.4480 H       1  UNL1        0.0000
     27  H          9.8340   10.5250    6.5870 H       1  UNL1        0.0000
     28  S         10.8310   12.2250    2.1460 S.O2    1  UNL1        0.0000
     29  O         10.3780   10.9780    1.5570 O.2     1  UNL1        0.0000
     30  O         10.5660   13.4920    1.4880 O.2     1  UNL1        0.0000
     31  C         12.5760   12.1000    2.4100 C.3     1  UNL1        0.0000
     32  H         12.9320   11.1740    2.0080 H       1  UNL1        0.0000
     33  H         12.7810   12.1350    3.4590 H       1  UNL1        0.0000
     34  H         13.0710   12.9140    1.9210 H       1  UNL1        0.0000
@<TRIPOS>BOND
     1     1     3    2
     2     1     2   am
     3     1    11    1
     4     2    18    1
     5     2     4    1
     6     5     6    1
     7     6    11   ar
     8     6     7   ar
     9     7     8   ar
    10     7    12    1
    11     8     9   ar
    12     8    13    1
    13     9    10   ar
    14     9    15    1
    15    10    14    1
    16    10    11   ar
    17    15    17    2
    18    15    16    2
    19    18    19   ar
    20    18    23   ar
    21    19    20   ar
    22    19    24    1
    23    20    25    1
    24    20    21   ar
    25    21    28    1
    26    21    22   ar
    27    22    26    1
    28    22    23   ar
    29    23    27    1
    30    28    30    2
    31    28    29    2
    32    28    31    1
    33    31    34    1
    34    31    32    1
    35    31    33    1
