@<TRIPOS>MOLECULE
UNL
 27 28 0 0 0
SMALL
GASTEIGER

@<TRIPOS>ATOM
      1  C         11.0190   11.2750    3.1020 C.2     1  UNL1        0.0000
      2  N          9.7480   11.6780    3.4580 N.am    1  UNL1        0.0000
      3  O         11.8780   10.8860    3.8840 O.2     1  UNL1        0.0000
      4  H          9.1060   11.8260    2.7270 H       1  UNL1        0.0000
      5 CL         13.8170   10.0690    1.9620 Cl      1  UNL1        0.0000
      6  C         12.5650   10.8590    1.0720 C.ar    1  UNL1        0.0000
      7  C         12.7740   10.9900   -0.3100 C.ar    1  UNL1        0.0000
      8  C         11.8340   11.6360   -1.1190 C.ar    1  UNL1        0.0000
      9  C         10.6800   12.1680   -0.5380 C.ar    1  UNL1        0.0000
     10  C         10.4650   12.0480    0.8400 C.ar    1  UNL1        0.0000
     11  C         11.3990   11.3790    1.6590 C.ar    1  UNL1        0.0000
     12  H         13.6320   10.6040   -0.7350 H       1  UNL1        0.0000
     13  H         11.9920   11.7190   -2.1370 H       1  UNL1        0.0000
     14  H          9.6150   12.4530    1.2610 H       1  UNL1        0.0000
     15  N          9.6800   12.8390   -1.3810 N.pl3   1  UNL1        0.0000
     16  O         10.0910   13.4670   -2.3670 O.2     1  UNL1        0.0000
     17  O          8.4900   12.7280   -1.0610 O.2     1  UNL1        0.0000
     18  C          9.2830   11.8990    4.7730 C.ar    1  UNL1        0.0000
     19  C          9.2140   10.9280    5.7710 C.ar    1  UNL1        0.0000
     20  N          8.8290   11.1740    7.0500 N.ar    1  UNL1        0.0000
     21  C          8.4850   12.4410    7.3510 C.ar    1  UNL1        0.0000
     22  C          8.5030   13.4750    6.4310 C.ar    1  UNL1        0.0000
     23  C          8.9100   13.1980    5.1270 C.ar    1  UNL1        0.0000
     24  H          9.4740    9.9600    5.5220 H       1  UNL1        0.0000
     25  H          8.1920   12.6520    8.3170 H       1  UNL1        0.0000
     26  H          8.2210   14.4300    6.7040 H       1  UNL1        0.0000
     27  H          8.9360   13.9520    4.4230 H       1  UNL1        0.0000
@<TRIPOS>BOND
     1     1    11    1
     2     1     2   am
     3     1     3    2
     4     2     4    1
     5     2    18    1
     6     5     6    1
     7     6     7   ar
     8     6    11   ar
     9     7     8   ar
    10     7    12    1
    11     8    13    1
    12     8     9   ar
    13     9    15    1
    14     9    10   ar
    15    10    14    1
    16    10    11   ar
    17    15    16    2
    18    15    17    2
    19    18    23   ar
    20    18    19   ar
    21    19    24    1
    22    19    20   ar
    23    20    21   ar
    24    21    22   ar
    25    21    25    1
    26    22    23   ar
    27    22    26    1
    28    23    27    1
