@<TRIPOS>MOLECULE
UNL
 32 33 0 0 0
SMALL
GASTEIGER

@<TRIPOS>ATOM
      1  C         10.2030   11.8970    3.3850 C.2     1  UNL1        0.0000
      2  N         11.5810   11.9850    3.3990 N.am    1  UNL1        0.0000
      3  O          9.5070   11.5950    2.4190 O.2     1  UNL1        0.0000
      4  H         11.9940   12.2780    4.2440 H       1  UNL1        0.0000
      5 CL          9.3580   14.9460    4.0540 Cl      1  UNL1        0.0000
      6  C          9.0620   13.5360    5.0090 C.ar    1  UNL1        0.0000
      7  C          8.3840   13.7370    6.2210 C.ar    1  UNL1        0.0000
      8  C          8.1270   12.6680    7.0820 C.ar    1  UNL1        0.0000
      9  C          8.5710   11.3870    6.7380 C.ar    1  UNL1        0.0000
     10  C          9.2540   11.1770    5.5340 C.ar    1  UNL1        0.0000
     11  C          9.4880   12.2490    4.6490 C.ar    1  UNL1        0.0000
     12  H          8.0700   14.6860    6.4780 H       1  UNL1        0.0000
     13  H          7.6150   12.8210    7.9660 H       1  UNL1        0.0000
     14  H          9.5880   10.2300    5.2930 H       1  UNL1        0.0000
     15  N          8.3030   10.2560    7.6350 N.pl3   1  UNL1        0.0000
     16  O          7.1960   10.2140    8.1890 O.2     1  UNL1        0.0000
     17  O          9.1930    9.4080    7.7730 O.2     1  UNL1        0.0000
     18  C         12.4640   11.6990    2.3330 C.ar    1  UNL1        0.0000
     19  C         13.0420   10.4480    2.1150 C.ar    1  UNL1        0.0000
     20  C         13.9800   10.2580    1.0920 C.ar    1  UNL1        0.0000
     21  C         14.3440   11.3240    0.2640 C.ar    1  UNL1        0.0000
     22  C         13.7310   12.5680    0.4480 C.ar    1  UNL1        0.0000
     23  C         12.7910   12.7520    1.4700 C.ar    1  UNL1        0.0000
     24  H         12.7750    9.6520    2.7160 H       1  UNL1        0.0000
     25  H         14.4040    9.3280    0.9490 H       1  UNL1        0.0000
     26  H         13.9760   13.3570   -0.1720 H       1  UNL1        0.0000
     27  H         12.3360   13.6710    1.5860 H       1  UNL1        0.0000
     28  C         15.4150   11.2020   -0.7600 C.2     1  UNL1        0.0000
     29  N         16.4010   12.1490   -0.7700 N.am    1  UNL1        0.0000
     30  O         15.4250   10.2800   -1.5670 O.2     1  UNL1        0.0000
     31  H         16.3820   12.8860   -0.1170 H       1  UNL1        0.0000
     32  H         17.1280   12.0950   -1.4310 H       1  UNL1        0.0000
@<TRIPOS>BOND
     1     1     3    2
     2     1     2   am
     3     1    11    1
     4     2    18    1
     5     2     4    1
     6     5     6    1
     7     6    11   ar
     8     6     7   ar
     9     7    12    1
    10     7     8   ar
    11     8     9   ar
    12     8    13    1
    13     9    10   ar
    14     9    15    1
    15    10    11   ar
    16    10    14    1
    17    15    17    2
    18    15    16    2
    19    18    23   ar
    20    18    19   ar
    21    19    20   ar
    22    19    24    1
    23    20    21   ar
    24    20    25    1
    25    21    28    1
    26    21    22   ar
    27    22    26    1
    28    22    23   ar
    29    23    27    1
    30    28    30    2
    31    28    29   am
    32    29    32    1
    33    29    31    1
