@<TRIPOS>MOLECULE
UNL
 31 32 0 0 0
SMALL
GASTEIGER

@<TRIPOS>ATOM
      1  C         10.0760   11.7070    3.7020 C.2     1  UNL1        0.0000
      2  N         11.4440   11.5430    3.8070 N.am    1  UNL1        0.0000
      3  O          9.4260   11.5840    2.6690 O.2     1  UNL1        0.0000
      4  H         11.8380   11.6510    4.7020 H       1  UNL1        0.0000
      5 CL          9.2490   14.7880    4.3580 Cl      1  UNL1        0.0000
      6  C          8.9050   13.3750    5.2930 C.ar    1  UNL1        0.0000
      7  C          8.1880   13.5850    6.4830 C.ar    1  UNL1        0.0000
      8  C          7.8890   12.5200    7.3360 C.ar    1  UNL1        0.0000
      9  C          8.3220   11.2340    7.0020 C.ar    1  UNL1        0.0000
     10  C          9.0370   11.0140    5.8190 C.ar    1  UNL1        0.0000
     11  C          9.3250   12.0820    4.9410 C.ar    1  UNL1        0.0000
     12  H          7.8780   14.5380    6.7290 H       1  UNL1        0.0000
     13  H          7.3540   12.6810    8.2030 H       1  UNL1        0.0000
     14  H          9.3580   10.0610    5.5860 H       1  UNL1        0.0000
     15  N          8.0170   10.1060    7.8920 N.pl3   1  UNL1        0.0000
     16  O          8.8670    9.2080    7.9890 O.2     1  UNL1        0.0000
     17  O          6.9360   10.1210    8.4940 O.2     1  UNL1        0.0000
     18  C         12.3330   11.2350    2.7510 C.ar    1  UNL1        0.0000
     19  C         12.9780   10.0090    2.6220 C.ar    1  UNL1        0.0000
     20  C         13.8530    9.8280    1.5640 C.ar    1  UNL1        0.0000
     21  N         14.1320   10.7770    0.6490 N.ar    1  UNL1        0.0000
     22  C         13.4930   11.9550    0.7900 C.ar    1  UNL1        0.0000
     23  C         12.5740   12.2200    1.7930 C.ar    1  UNL1        0.0000
     24  H         12.8080    9.2500    3.3010 H       1  UNL1        0.0000
     25  H         14.3200    8.9120    1.4720 H       1  UNL1        0.0000
     26  H         12.0790   13.1250    1.8310 H       1  UNL1        0.0000
     27  O         13.7580   12.9880   -0.0880 O.3     1  UNL1        0.0000
     28  C         13.6010   14.2710    0.5120 C.3     1  UNL1        0.0000
     29  H         12.5890   14.3900    0.8400 H       1  UNL1        0.0000
     30  H         13.8370   15.0310   -0.2030 H       1  UNL1        0.0000
     31  H         14.2600   14.3550    1.3520 H       1  UNL1        0.0000
@<TRIPOS>BOND
     1     1     3    2
     2     1     2   am
     3     1    11    1
     4     2    18    1
     5     2     4    1
     6     5     6    1
     7     6    11   ar
     8     6     7   ar
     9     7    12    1
    10     7     8   ar
    11     8     9   ar
    12     8    13    1
    13     9    10   ar
    14     9    15    1
    15    10    11   ar
    16    10    14    1
    17    15    16    2
    18    15    17    2
    19    18    23   ar
    20    18    19   ar
    21    19    20   ar
    22    19    24    1
    23    20    21   ar
    24    20    25    1
    25    21    22   ar
    26    22    27    1
    27    22    23   ar
    28    23    26    1
    29    27    28    1
    30    28    30    1
    31    28    29    1
    32    28    31    1
