@<TRIPOS>MOLECULE
UNL
 29 30 0 0 0
SMALL
GASTEIGER

@<TRIPOS>ATOM
      1  C          9.6710   12.1580    2.2050 C.2     1  UNL1        0.0000
      2  N         10.2720   12.0880    3.4490 N.am    1  UNL1        0.0000
      3  O          8.4810   12.3790    2.0020 O.2     1  UNL1        0.0000
      4  H         11.2350   11.8840    3.4710 H       1  UNL1        0.0000
      5 CL          8.6580   12.8730   -0.7950 Cl      1  UNL1        0.0000
      6  C         10.1930   12.2350   -0.3210 C.ar    1  UNL1        0.0000
      7  C         11.1100   11.9950   -1.3560 C.ar    1  UNL1        0.0000
      8  C         12.3670   11.4500   -1.0850 C.ar    1  UNL1        0.0000
      9  C         12.7040   11.1230    0.2320 C.ar    1  UNL1        0.0000
     10  C         11.7930   11.3470    1.2700 C.ar    1  UNL1        0.0000
     11  C         10.5350   11.9310    1.0070 C.ar    1  UNL1        0.0000
     12  H         10.8530   12.2250   -2.3280 H       1  UNL1        0.0000
     13  H         13.0420   11.2900   -1.8500 H       1  UNL1        0.0000
     14  H         12.0420   11.0840    2.2360 H       1  UNL1        0.0000
     15  N         14.0280   10.5620    0.5290 N.pl3   1  UNL1        0.0000
     16  O         14.9490   10.8220   -0.2570 O.2     1  UNL1        0.0000
     17  O         14.1480    9.8730    1.5520 O.2     1  UNL1        0.0000
     18  C          9.6280   12.2840    4.6900 C.ar    1  UNL1        0.0000
     19  C          8.9530   13.4590    5.0270 C.ar    1  UNL1        0.0000
     20  C          8.4250   13.6310    6.3130 C.ar    1  UNL1        0.0000
     21  C          8.5530   12.6130    7.2610 C.ar    1  UNL1        0.0000
     22  C          9.1770   11.4150    6.9130 C.ar    1  UNL1        0.0000
     23  C          9.6990   11.2470    5.6280 C.ar    1  UNL1        0.0000
     24  H          8.8440   14.2070    4.3260 H       1  UNL1        0.0000
     25  H          8.1880   12.7470    8.2160 H       1  UNL1        0.0000
     26  H          9.2530   10.6540    7.6050 H       1  UNL1        0.0000
     27  H         10.1390   10.3500    5.3680 H       1  UNL1        0.0000
     28  C          7.7680   14.8580    6.6580 C.1     1  UNL1        0.0000
     29  N          7.2490   15.8530    6.9440 N.1     1  UNL1        0.0000
@<TRIPOS>BOND
     1     1    11    1
     2     1     3    2
     3     1     2   am
     4     2     4    1
     5     2    18    1
     6     5     6    1
     7     6     7   ar
     8     6    11   ar
     9     7    12    1
    10     7     8   ar
    11     8    13    1
    12     8     9   ar
    13     9    15    1
    14     9    10   ar
    15    10    11   ar
    16    10    14    1
    17    15    16    2
    18    15    17    2
    19    18    19   ar
    20    18    23   ar
    21    19    24    1
    22    19    20   ar
    23    20    28    1
    24    20    21   ar
    25    21    22   ar
    26    21    25    1
    27    22    23   ar
    28    22    26    1
    29    23    27    1
    30    28    29    3
