@<TRIPOS>MOLECULE
UNL
 33 35 0 0 0
SMALL
GASTEIGER

@<TRIPOS>ATOM
      1  C         10.3670   11.8330    3.2800 C.2     1  UNL1        0.0000
      2  N         11.7500   11.8330    3.3440 N.am    1  UNL1        0.0000
      3  O          9.6970   11.5570    2.2880 O.2     1  UNL1        0.0000
      4  H         12.1450   11.8930    4.2430 H       1  UNL1        0.0000
      5  C         12.6650   11.7550    2.2520 C.ar    1  UNL1        0.0000
      6  C         13.0550   10.5250    1.7280 C.ar    1  UNL1        0.0000
      7  C         13.8400   10.5020    0.5930 C.ar    1  UNL1        0.0000
      8  N         14.2510   11.6070   -0.0550 N.ar    1  UNL1        0.0000
      9  C         13.9030   12.7970    0.4470 C.ar    1  UNL1        0.0000
     10  C         13.1270   12.9500    1.6220 C.ar    1  UNL1        0.0000
     11  C         12.8800   14.2730    2.0800 C.ar    1  UNL1        0.0000
     12  C         13.3370   15.3900    1.3760 C.ar    1  UNL1        0.0000
     13  C         14.0510   15.2150    0.2030 C.ar    1  UNL1        0.0000
     14  C         14.3330   13.9240   -0.2410 C.ar    1  UNL1        0.0000
     15  H         12.7600    9.6440    2.1780 H       1  UNL1        0.0000
     16  H         14.1300    9.5850    0.2210 H       1  UNL1        0.0000
     17  H         12.3510   14.4110    2.9540 H       1  UNL1        0.0000
     18  H         13.1420   16.3400    1.7290 H       1  UNL1        0.0000
     19  H         14.3710   16.0330   -0.3390 H       1  UNL1        0.0000
     20  H         14.8790   13.8010   -1.1090 H       1  UNL1        0.0000
     21 CL          9.5400   14.9320    3.7740 Cl      1  UNL1        0.0000
     22  C          9.1920   13.5730    4.7810 C.ar    1  UNL1        0.0000
     23  C          8.4590   13.8410    5.9490 C.ar    1  UNL1        0.0000
     24  C          8.1490   12.8200    6.8490 C.ar    1  UNL1        0.0000
     25  C          8.5870   11.5190    6.5870 C.ar    1  UNL1        0.0000
     26  C          9.3250   11.2430    5.4290 C.ar    1  UNL1        0.0000
     27  C          9.6210   12.2680    4.5020 C.ar    1  UNL1        0.0000
     28  H          8.1460   14.8050    6.1440 H       1  UNL1        0.0000
     29  H          7.6020   13.0230    7.7010 H       1  UNL1        0.0000
     30  H          9.6550   10.2820    5.2500 H       1  UNL1        0.0000
     31  N          8.2520   10.4340    7.5210 N.pl3   1  UNL1        0.0000
     32  O          7.1390   10.4700    8.0620 O.2     1  UNL1        0.0000
     33  O          9.0960    9.5470    7.7010 O.2     1  UNL1        0.0000
@<TRIPOS>BOND
     1     1     3    2
     2     1     2   am
     3     1    27    1
     4     2     5    1
     5     2     4    1
     6     5    10   ar
     7     5     6   ar
     8     6     7   ar
     9     6    15    1
    10     7     8   ar
    11     7    16    1
    12     8     9   ar
    13     9    14   ar
    14     9    10   ar
    15    10    11   ar
    16    11    12   ar
    17    11    17    1
    18    12    13   ar
    19    12    18    1
    20    13    19    1
    21    13    14   ar
    22    14    20    1
    23    21    22    1
    24    22    27   ar
    25    22    23   ar
    26    23    28    1
    27    23    24   ar
    28    24    25   ar
    29    24    29    1
    30    25    26   ar
    31    25    31    1
    32    26    27   ar
    33    26    30    1
    34    31    33    2
    35    31    32    2
