@<TRIPOS>MOLECULE
UNL
 28 29 0 0 0
SMALL
GASTEIGER

@<TRIPOS>ATOM
      1  C          9.9980   11.7710    3.8470 C.2     1  UNL1        0.0000
      2  N         11.3710   11.6680    3.9050 N.am    1  UNL1        0.0000
      3  C         12.1520   11.3640    2.7830 C.ar    1  UNL1        0.0000
      4  N         13.0650   10.3940    3.0290 N.ar    1  UNL1        0.0000
      5  C         13.8020    9.9550    1.9860 C.ar    1  UNL1        0.0000
      6  C         13.7100   10.4750    0.7090 C.ar    1  UNL1        0.0000
      7  C         12.8290   11.5290    0.4930 C.ar    1  UNL1        0.0000
      8  C         12.0330   11.9970    1.5440 C.ar    1  UNL1        0.0000
      9  O          9.3430   11.6170    2.8200 O.2     1  UNL1        0.0000
     10  H         11.8190   11.8150    4.7690 H       1  UNL1        0.0000
     11  H         14.4710    9.1860    2.1530 H       1  UNL1        0.0000
     12  H         14.2790   10.0930   -0.0620 H       1  UNL1        0.0000
     13  H         12.7620   11.9650   -0.4400 H       1  UNL1        0.0000
     14 CL          9.0790   14.8050    4.5750 Cl      1  UNL1        0.0000
     15  C          8.7910   13.3620    5.4800 C.ar    1  UNL1        0.0000
     16  C          8.0600   13.5160    6.6680 C.ar    1  UNL1        0.0000
     17  C          7.8080   12.4220    7.4980 C.ar    1  UNL1        0.0000
     18  C          8.3070   11.1630    7.1470 C.ar    1  UNL1        0.0000
     19  C          9.0430   11.0000    5.9690 C.ar    1  UNL1        0.0000
     20  C          9.2720   12.0950    5.1090 C.ar    1  UNL1        0.0000
     21  H          7.7060   14.4480    6.9310 H       1  UNL1        0.0000
     22  H          7.2570   12.5410    8.3630 H       1  UNL1        0.0000
     23  H          9.4220   10.0700    5.7260 H       1  UNL1        0.0000
     24  N          8.0380   10.0060    8.0100 N.pl3   1  UNL1        0.0000
     25  O          8.9000    9.1160    8.0580 O.2     1  UNL1        0.0000
     26  O          6.9710    9.9900    8.6360 O.2     1  UNL1        0.0000
     27  C         11.2450   13.1800    1.3450 C.1     1  UNL1        0.0000
     28  N         10.6640   14.1620    1.1380 N.1     1  UNL1        0.0000
@<TRIPOS>BOND
     1     1     9    2
     2     1     2   am
     3     1    20    1
     4     2     3    1
     5     2    10    1
     6     3     8   ar
     7     3     4   ar
     8     4     5   ar
     9     5     6   ar
    10     5    11    1
    11     6    12    1
    12     6     7   ar
    13     7    13    1
    14     7     8   ar
    15     8    27    1
    16    14    15    1
    17    15    20   ar
    18    15    16   ar
    19    16    21    1
    20    16    17   ar
    21    17    18   ar
    22    17    22    1
    23    18    19   ar
    24    18    24    1
    25    19    20   ar
    26    19    23    1
    27    24    25    2
    28    24    26    2
    29    27    28    3
