@<TRIPOS>MOLECULE
UNL
 35 36 0 0 0
SMALL
GASTEIGER

@<TRIPOS>ATOM
      1  C         12.6540   11.7000    1.8370 C.ar    1  UNL1        0.0000
      2  C         13.3330   10.4880    1.7550 C.ar    1  UNL1        0.0000
      3  C         14.2650   10.2520    0.7340 C.ar    1  UNL1        0.0000
      4  C         14.5350   11.2280   -0.2230 C.ar    1  UNL1        0.0000
      5  C         13.7890   12.4120   -0.1940 C.ar    1  UNL1        0.0000
      6  C         12.8540   12.6440    0.8240 C.ar    1  UNL1        0.0000
      7  H         13.1490    9.7510    2.4550 H       1  UNL1        0.0000
      8  H         14.7560    9.3460    0.6900 H       1  UNL1        0.0000
      9  H         13.9270   13.1210   -0.9320 H       1  UNL1        0.0000
     10  H         12.3070   13.5190    0.8270 H       1  UNL1        0.0000
     11  C         10.4240   11.9560    2.9400 C.2     1  UNL1        0.0000
     12  N         11.8030   12.0550    2.9080 N.am    1  UNL1        0.0000
     13  O          9.6980   11.6300    2.0050 O.2     1  UNL1        0.0000
     14  H         12.2380   12.4100    3.7160 H       1  UNL1        0.0000
     15 CL          9.3560   14.9510    3.4910 Cl      1  UNL1        0.0000
     16  C          9.2400   13.5820    4.5400 C.ar    1  UNL1        0.0000
     17  C          8.6240   13.8010    5.7820 C.ar    1  UNL1        0.0000
     18  C          8.5130   12.7680    6.7160 C.ar    1  UNL1        0.0000
     19  C          9.0370   11.5080    6.4110 C.ar    1  UNL1        0.0000
     20  C          9.6610   11.2810    5.1770 C.ar    1  UNL1        0.0000
     21  C          9.7480   12.3120    4.2210 C.ar    1  UNL1        0.0000
     22  H          8.2490   14.7350    6.0090 H       1  UNL1        0.0000
     23  H          8.0490   12.9330    7.6240 H       1  UNL1        0.0000
     24  H         10.0580   10.3520    4.9680 H       1  UNL1        0.0000
     25  N          8.9190   10.4150    7.3860 N.pl3   1  UNL1        0.0000
     26  O          9.9530    9.8010    7.6820 O.2     1  UNL1        0.0000
     27  O          7.8000   10.1830    7.8600 O.2     1  UNL1        0.0000
     28  N         15.5550   11.1170   -1.1930 N.am    1  UNL1        0.0000
     29  C         16.8160   11.6910   -1.1450 C.2     1  UNL1        0.0000
     30  O         17.3040   12.3260   -0.2170 O.2     1  UNL1        0.0000
     31  H         15.3500   10.5730   -1.9870 H       1  UNL1        0.0000
     32  C         17.5870   11.5180   -2.4300 C.3     1  UNL1        0.0000
     33  H         16.9040   11.4560   -3.2510 H       1  UNL1        0.0000
     34  H         18.1670   10.6210   -2.3800 H       1  UNL1        0.0000
     35  H         18.2380   12.3550   -2.5700 H       1  UNL1        0.0000
@<TRIPOS>BOND
     1     1     6   ar
     2     1     2   ar
     3     1    12    1
     4     2     3   ar
     5     2     7    1
     6     3     4   ar
     7     3     8    1
     8     4    28    1
     9     4     5   ar
    10     5     9    1
    11     5     6   ar
    12     6    10    1
    13    11    13    2
    14    11    12   am
    15    11    21    1
    16    12    14    1
    17    15    16    1
    18    16    21   ar
    19    16    17   ar
    20    17    22    1
    21    17    18   ar
    22    18    19   ar
    23    18    23    1
    24    19    20   ar
    25    19    25    1
    26    20    21   ar
    27    20    24    1
    28    25    26    2
    29    25    27    2
    30    28    31    1
    31    28    29   am
    32    29    32    1
    33    29    30    2
    34    32    33    1
    35    32    35    1
    36    32    34    1
