@<TRIPOS>MOLECULE
UNL
 29 30 0 0 0
SMALL
GASTEIGER

@<TRIPOS>ATOM
      1  C         10.3600   11.7850    3.2090 C.2     1  UNL1        0.0000
      2  N         11.7270   11.9840    3.1860 N.am    1  UNL1        0.0000
      3  O          9.7000   11.2630    2.3160 O.2     1  UNL1        0.0000
      4  H         12.1240   12.4330    3.9680 H       1  UNL1        0.0000
      5 CL          9.6420   14.9260    3.6570 Cl      1  UNL1        0.0000
      6  C          9.2390   13.5900    4.6760 C.ar    1  UNL1        0.0000
      7  C          8.5160   13.8980    5.8410 C.ar    1  UNL1        0.0000
      8  C          8.1720   12.9020    6.7550 C.ar    1  UNL1        0.0000
      9  C          8.5670   11.5830    6.5120 C.ar    1  UNL1        0.0000
     10  C          9.2900   11.2640    5.3580 C.ar    1  UNL1        0.0000
     11  C          9.6170   12.2620    4.4150 C.ar    1  UNL1        0.0000
     12  H          8.2370   14.8750    6.0230 H       1  UNL1        0.0000
     13  H          7.6310   13.1350    7.6020 H       1  UNL1        0.0000
     14  H          9.5870   10.2890    5.1930 H       1  UNL1        0.0000
     15  N          8.2090   10.5240    7.4660 N.pl3   1  UNL1        0.0000
     16  O          9.0440    9.6330    7.6720 O.2     1  UNL1        0.0000
     17  O          7.1010   10.5910    8.0100 O.2     1  UNL1        0.0000
     18  C         12.6110   11.6090    2.1520 C.ar    1  UNL1        0.0000
     19  C         13.2710   10.3780    2.1100 C.ar    1  UNL1        0.0000
     20  C         14.2060   10.1060    1.1080 C.ar    1  UNL1        0.0000
     21  C         14.4750   11.0710    0.1450 C.ar    1  UNL1        0.0000
     22  C         13.7820   12.2730    0.1330 C.ar    1  UNL1        0.0000
     23  C         12.8410   12.5390    1.1300 C.ar    1  UNL1        0.0000
     24  H         13.0670    9.6640    2.8260 H       1  UNL1        0.0000
     25  H         14.6930    9.1970    1.0830 H       1  UNL1        0.0000
     26  H         13.9610   12.9670   -0.6100 H       1  UNL1        0.0000
     27  H         12.3130   13.4260    1.1150 H       1  UNL1        0.0000
     28  O         15.4330   10.8740   -0.8030 O.3     1  UNL1        0.0000
     29  H         15.8080   10.0240   -0.9220 H       1  UNL1        0.0000
@<TRIPOS>BOND
     1     1     3    2
     2     1     2   am
     3     1    11    1
     4     2    18    1
     5     2     4    1
     6     5     6    1
     7     6    11   ar
     8     6     7   ar
     9     7    12    1
    10     7     8   ar
    11     8     9   ar
    12     8    13    1
    13     9    10   ar
    14     9    15    1
    15    10    11   ar
    16    10    14    1
    17    15    16    2
    18    15    17    2
    19    18    23   ar
    20    18    19   ar
    21    19    20   ar
    22    19    24    1
    23    20    21   ar
    24    20    25    1
    25    21    28    1
    26    21    22   ar
    27    22    26    1
    28    22    23   ar
    29    23    27    1
    30    28    29    1
