@<TRIPOS>MOLECULE
UNL
 31 32 0 0 0
SMALL
GASTEIGER

@<TRIPOS>ATOM
      1  C         10.4590   11.8110    3.2100 C.2     1  UNL1        0.0000
      2  N         11.8160   12.0420    3.1780 N.am    1  UNL1        0.0000
      3  O          9.7860   11.2500    2.3510 O.2     1  UNL1        0.0000
      4  H         12.2220   12.3960    4.0020 H       1  UNL1        0.0000
      5 CL          9.5810   14.8470    3.5210 Cl      1  UNL1        0.0000
      6  C          9.2920   13.5630    4.6360 C.ar    1  UNL1        0.0000
      7  C          8.5210   13.8660    5.7660 C.ar    1  UNL1        0.0000
      8  C          8.1810   12.8670    6.6840 C.ar    1  UNL1        0.0000
      9  C          8.6250   11.5560    6.4720 C.ar    1  UNL1        0.0000
     10  C          9.4030   11.2430    5.3520 C.ar    1  UNL1        0.0000
     11  C          9.7410   12.2500    4.4300 C.ar    1  UNL1        0.0000
     12  H          8.2000   14.8340    5.9220 H       1  UNL1        0.0000
     13  H          7.6090   13.0950    7.5120 H       1  UNL1        0.0000
     14  H          9.7280   10.2750    5.2030 H       1  UNL1        0.0000
     15  N          8.2520   10.5000    7.4200 N.pl3   1  UNL1        0.0000
     16  O          7.1280   10.5640    7.9360 O.2     1  UNL1        0.0000
     17  O          9.0860    9.6140    7.6490 O.2     1  UNL1        0.0000
     18  C         12.6890   11.8230    2.0840 C.ar    1  UNL1        0.0000
     19  C         13.3170   10.6050    1.8300 C.ar    1  UNL1        0.0000
     20  C         14.1510   10.4990    0.7270 C.ar    1  UNL1        0.0000
     21  N         14.4000   11.5110   -0.1320 N.ar    1  UNL1        0.0000
     22  C         13.7870   12.6860    0.1300 C.ar    1  UNL1        0.0000
     23  C         12.9220   12.8830    1.1990 C.ar    1  UNL1        0.0000
     24  H         13.1630    9.7960    2.4530 H       1  UNL1        0.0000
     25  H         14.6100    9.5920    0.5520 H       1  UNL1        0.0000
     26  H         13.9720   13.4830   -0.4980 H       1  UNL1        0.0000
     27  O         12.3890   14.1250    1.4190 O.3     1  UNL1        0.0000
     28  C         13.4030   15.0980    1.6760 C.3     1  UNL1        0.0000
     29  H         13.5900   15.6610    0.7860 H       1  UNL1        0.0000
     30  H         14.3010   14.6060    1.9830 H       1  UNL1        0.0000
     31  H         13.0750   15.7580    2.4530 H       1  UNL1        0.0000
@<TRIPOS>BOND
     1     1     3    2
     2     1     2   am
     3     1    11    1
     4     2    18    1
     5     2     4    1
     6     5     6    1
     7     6    11   ar
     8     6     7   ar
     9     7    12    1
    10     7     8   ar
    11     8     9   ar
    12     8    13    1
    13     9    10   ar
    14     9    15    1
    15    10    11   ar
    16    10    14    1
    17    15    17    2
    18    15    16    2
    19    18    23   ar
    20    18    19   ar
    21    19    20   ar
    22    19    24    1
    23    20    21   ar
    24    20    25    1
    25    21    22   ar
    26    22    26    1
    27    22    23   ar
    28    23    27    1
    29    27    28    1
    30    28    29    1
    31    28    30    1
    32    28    31    1
