@<TRIPOS>MOLECULE
UNL
 46 49 0 0 0
SMALL
GASTEIGER

@<TRIPOS>ATOM
      1  C          8.1910   13.1120    6.8270 C.ar    1  UNL1        0.0000
      2  C          8.5130   13.5540    5.5350 C.ar    1  UNL1        0.0000
      3  C          9.3770   12.7840    4.7460 C.ar    1  UNL1        0.0000
      4  N          9.8750   13.0060    3.4920 N.ar    1  UNL1        0.0000
      5  C         10.6670   11.9720    3.2760 C.ar    1  UNL1        0.0000
      6  O         10.7060   11.0610    4.3080 O.2     1  UNL1        0.0000
      7  C          9.8760   11.5980    5.2520 C.ar    1  UNL1        0.0000
      8  C          9.5710   11.0940    6.5100 C.ar    1  UNL1        0.0000
      9  C          8.7180   11.8920    7.2960 C.ar    1  UNL1        0.0000
     10  H          8.1180   14.4350    5.1700 H       1  UNL1        0.0000
     11  H          9.9460   10.1940    6.8470 H       1  UNL1        0.0000
     12  H          8.4690   11.5730    8.2460 H       1  UNL1        0.0000
     13  C         11.5020   11.7050    2.1070 C.ar    1  UNL1        0.0000
     14  C         12.8120   11.2350    2.2910 C.ar    1  UNL1        0.0000
     15  C         13.6370   10.9510    1.1980 C.ar    1  UNL1        0.0000
     16  C         13.1690   11.1360   -0.1080 C.ar    1  UNL1        0.0000
     17  C         11.8600   11.5960   -0.2980 C.ar    1  UNL1        0.0000
     18  C         11.0370   11.8810    0.7980 C.ar    1  UNL1        0.0000
     19  H         13.1730   11.0950    3.2470 H       1  UNL1        0.0000
     20  H         14.5970   10.6040    1.3540 H       1  UNL1        0.0000
     21  H         11.4990   11.7260   -1.2560 H       1  UNL1        0.0000
     22  H         10.0760   12.2230    0.6400 H       1  UNL1        0.0000
     23  C         14.0540   10.8310   -1.2900 C.3     1  UNL1        0.0000
     24  H         13.8850   11.5690   -2.0450 H       1  UNL1        0.0000
     25  H         13.8050    9.8490   -1.6380 H       1  UNL1        0.0000
     26  C         15.5310   10.8340   -0.9260 C.3     1  UNL1        0.0000
     27  H         15.6360   10.7570    0.1370 H       1  UNL1        0.0000
     28  H         15.9790   11.7440   -1.2640 H       1  UNL1        0.0000
     29  H         16.0150   10.0020   -1.3930 H       1  UNL1        0.0000
     30  C          6.0230   13.8170    7.8500 C.2     1  UNL1        0.0000
     31  N          7.4020   13.8780    7.7210 N.am    1  UNL1        0.0000
     32  O          5.3010   12.9540    7.3600 O.2     1  UNL1        0.0000
     33  H          7.8780   14.5130    8.3040 H       1  UNL1        0.0000
     34 CL          4.3810   16.1690    6.3370 Cl      1  UNL1        0.0000
     35  C          4.5850   15.9500    8.0390 C.ar    1  UNL1        0.0000
     36  C          3.9630   16.8980    8.8680 C.ar    1  UNL1        0.0000
     37  C          4.0790   16.8210   10.2590 C.ar    1  UNL1        0.0000
     38  C          4.8380   15.7950   10.8280 C.ar    1  UNL1        0.0000
     39  C          5.4780   14.8560   10.0090 C.ar    1  UNL1        0.0000
     40  C          5.3410   14.9120    8.6030 C.ar    1  UNL1        0.0000
     41  H          3.4130   17.6620    8.4440 H       1  UNL1        0.0000
     42  H          3.6080   17.5150   10.8600 H       1  UNL1        0.0000
     43  H          6.0560   14.1160   10.4370 H       1  UNL1        0.0000
     44  N          4.9400   15.6870   12.2890 N.pl3   1  UNL1        0.0000
     45  O          5.6070   16.5490   12.8820 O.2     1  UNL1        0.0000
     46  O          4.3480   14.7530   12.8430 O.2     1  UNL1        0.0000
@<TRIPOS>BOND
     1     1     2   ar
     2     1     9   ar
     3     1    31    1
     4     2     3   ar
     5     2    10    1
     6     3     4   ar
     7     3     7   ar
     8     4     5   ar
     9     5    13    1
    10     5     6   ar
    11     6     7   ar
    12     7     8   ar
    13     8    11    1
    14     8     9   ar
    15     9    12    1
    16    13    18   ar
    17    13    14   ar
    18    14    15   ar
    19    14    19    1
    20    15    16   ar
    21    15    20    1
    22    16    23    1
    23    16    17   ar
    24    17    21    1
    25    17    18   ar
    26    18    22    1
    27    23    24    1
    28    23    25    1
    29    23    26    1
    30    26    29    1
    31    26    28    1
    32    26    27    1
    33    30    32    2
    34    30    31   am
    35    30    40    1
    36    31    33    1
    37    34    35    1
    38    35    40   ar
    39    35    36   ar
    40    36    41    1
    41    36    37   ar
    42    37    38   ar
    43    37    42    1
    44    38    39   ar
    45    38    44    1
    46    39    40   ar
    47    39    43    1
    48    44    46    2
    49    44    45    2
