@<TRIPOS>MOLECULE
UNL
 46 49 0 0 0
SMALL
GASTEIGER

@<TRIPOS>ATOM
      1  C          7.8940   12.8120    5.9030 C.ar    1  UNL1        0.0000
      2  C          8.2040   13.0670    4.5580 C.ar    1  UNL1        0.0000
      3  C          9.3030   12.4180    3.9830 C.ar    1  UNL1        0.0000
      4  N          9.8390   12.5190    2.7280 N.ar    1  UNL1        0.0000
      5  C         10.8840   11.7120    2.7630 C.ar    1  UNL1        0.0000
      6  O         11.0630   11.0630    3.9620 O.2     1  UNL1        0.0000
      7  C         10.0410   11.5290    4.7430 C.ar    1  UNL1        0.0000
      8  C          9.7630   11.2150    6.0670 C.ar    1  UNL1        0.0000
      9  C          8.6690   11.8920    6.6350 C.ar    1  UNL1        0.0000
     10  H          7.6310   13.7210    4.0030 H       1  UNL1        0.0000
     11  H         10.3230   10.5300    6.5980 H       1  UNL1        0.0000
     12  H          8.4270   11.7090    7.6220 H       1  UNL1        0.0000
     13  C         11.8540   11.4540    1.7030 C.ar    1  UNL1        0.0000
     14  C         13.0580   10.8070    2.0210 C.ar    1  UNL1        0.0000
     15  C         14.0100   10.5280    1.0370 C.ar    1  UNL1        0.0000
     16  C         13.7770   10.8980   -0.2930 C.ar    1  UNL1        0.0000
     17  C         12.5730   11.5320   -0.6190 C.ar    1  UNL1        0.0000
     18  C         11.6220   11.8120    0.3690 C.ar    1  UNL1        0.0000
     19  H         13.2440   10.5310    2.9980 H       1  UNL1        0.0000
     20  H         14.8880   10.0490    1.2920 H       1  UNL1        0.0000
     21  H         12.3850   11.7980   -1.5990 H       1  UNL1        0.0000
     22  H         10.7420   12.2870    0.1120 H       1  UNL1        0.0000
     23  C         14.8000   10.5940   -1.3580 C.3     1  UNL1        0.0000
     24  H         14.4230   10.9270   -2.3030 H       1  UNL1        0.0000
     25  H         14.9710    9.5380   -1.3570 H       1  UNL1        0.0000
     26  C         16.1310   11.2810   -1.0940 C.3     1  UNL1        0.0000
     27  H         16.5620   11.5930   -2.0230 H       1  UNL1        0.0000
     28  H         16.7940   10.5990   -0.6050 H       1  UNL1        0.0000
     29  H         15.9730   12.1360   -0.4700 H       1  UNL1        0.0000
     30  C          6.9080   14.7960    7.0570 C.2     1  UNL1        0.0000
     31  N          6.8600   13.4960    6.5860 N.am    1  UNL1        0.0000
     32  O          7.7790   15.6180    6.7880 O.2     1  UNL1        0.0000
     33  H          6.0250   12.9980    6.7420 H       1  UNL1        0.0000
     34 BR          7.0500   13.8430   10.3020 Br      1  UNL1        0.0000
     35  C          5.7990   14.9470    9.3930 C.ar    1  UNL1        0.0000
     36  C          4.7540   15.4590   10.1800 C.ar    1  UNL1        0.0000
     37  C          3.7460   16.2430    9.6150 C.ar    1  UNL1        0.0000
     38  C          3.7730   16.5090    8.2430 C.ar    1  UNL1        0.0000
     39  C          4.8070   15.9990    7.4480 C.ar    1  UNL1        0.0000
     40  C          5.8440   15.2260    8.0180 C.ar    1  UNL1        0.0000
     41  H          4.7300   15.2520   11.1910 H       1  UNL1        0.0000
     42  H          2.9890   16.6240   10.2040 H       1  UNL1        0.0000
     43  H          4.8110   16.1910    6.4340 H       1  UNL1        0.0000
     44  N          2.7230   17.3410    7.6410 N.pl3   1  UNL1        0.0000
     45  O          1.5870   17.2760    8.1340 O.2     1  UNL1        0.0000
     46  O          3.0350   18.0630    6.6850 O.2     1  UNL1        0.0000
@<TRIPOS>BOND
     1     1     2   ar
     2     1    31    1
     3     1     9   ar
     4     2     3   ar
     5     2    10    1
     6     3     4   ar
     7     3     7   ar
     8     4     5   ar
     9     5    13    1
    10     5     6   ar
    11     6     7   ar
    12     7     8   ar
    13     8    11    1
    14     8     9   ar
    15     9    12    1
    16    13    18   ar
    17    13    14   ar
    18    14    15   ar
    19    14    19    1
    20    15    16   ar
    21    15    20    1
    22    16    23    1
    23    16    17   ar
    24    17    21    1
    25    17    18   ar
    26    18    22    1
    27    23    24    1
    28    23    25    1
    29    23    26    1
    30    26    27    1
    31    26    28    1
    32    26    29    1
    33    30    31   am
    34    30    32    2
    35    30    40    1
    36    31    33    1
    37    34    35    1
    38    35    40   ar
    39    35    36   ar
    40    36    37   ar
    41    36    41    1
    42    37    38   ar
    43    37    42    1
    44    38    39   ar
    45    38    44    1
    46    39    43    1
    47    39    40   ar
    48    44    46    2
    49    44    45    2
