@<TRIPOS>MOLECULE
UNL
 43 46 0 0 0
SMALL
GASTEIGER

@<TRIPOS>ATOM
      1  C          7.6020   11.9150    6.0950 C.ar    1  UNL1        0.0000
      2  C          7.7920   11.9830    4.7070 C.ar    1  UNL1        0.0000
      3  C          9.0470   11.6540    4.1800 C.ar    1  UNL1        0.0000
      4  N          9.5050   11.6710    2.8900 N.ar    1  UNL1        0.0000
      5  C         10.7660   11.2950    2.9970 C.ar    1  UNL1        0.0000
      6  O         11.1710   11.0150    4.2800 O.2     1  UNL1        0.0000
      7  C         10.0580   11.2540    5.0340 C.ar    1  UNL1        0.0000
      8  C          9.9200   11.1460    6.4120 C.ar    1  UNL1        0.0000
      9  C          8.6600   11.4990    6.9260 C.ar    1  UNL1        0.0000
     10  H          7.0200   12.2700    4.0850 H       1  UNL1        0.0000
     11  H         10.6910   10.8270    7.0180 H       1  UNL1        0.0000
     12  H          8.5060   11.4520    7.9450 H       1  UNL1        0.0000
     13  C         11.7560   11.1600    1.9320 C.ar    1  UNL1        0.0000
     14  C         13.0090   10.6050    2.2330 C.ar    1  UNL1        0.0000
     15  C         13.9860   10.4510    1.2460 C.ar    1  UNL1        0.0000
     16  C         13.7310   10.8540   -0.0680 C.ar    1  UNL1        0.0000
     17  C         12.4780   11.4000   -0.3790 C.ar    1  UNL1        0.0000
     18  C         11.5010   11.5540    0.6120 C.ar    1  UNL1        0.0000
     19  H         13.2120   10.3040    3.1990 H       1  UNL1        0.0000
     20  H         14.9000   10.0370    1.4880 H       1  UNL1        0.0000
     21  H         12.2740   11.6890   -1.3480 H       1  UNL1        0.0000
     22  H         10.5850   11.9610    0.3680 H       1  UNL1        0.0000
     23  C         14.7820   10.6820   -1.1340 C.3     1  UNL1        0.0000
     24  H         14.3850   11.0170   -2.0690 H       1  UNL1        0.0000
     25  H         15.0450    9.6450   -1.1750 H       1  UNL1        0.0000
     26  C         16.0420   11.4750   -0.8240 C.3     1  UNL1        0.0000
     27  H         16.0320   12.3910   -1.3770 H       1  UNL1        0.0000
     28  H         16.9020   10.9000   -1.1000 H       1  UNL1        0.0000
     29  H         16.0790   11.6910    0.2240 H       1  UNL1        0.0000
     30  C          6.1600   13.5140    7.3610 C.2     1  UNL1        0.0000
     31  N          6.3970   12.3090    6.7230 N.am    1  UNL1        0.0000
     32  O          6.8920   14.4990    7.3150 O.2     1  UNL1        0.0000
     33  H          5.6550   11.6620    6.7050 H       1  UNL1        0.0000
     34 CL          6.0970   12.4750   10.4470 Cl      1  UNL1        0.0000
     35  C          4.8410   13.2350    9.5450 C.ar    1  UNL1        0.0000
     36  N          3.7190   13.3940   10.2950 N.ar    1  UNL1        0.0000
     37  C          2.6470   13.9450    9.6880 C.ar    1  UNL1        0.0000
     38  C          2.6380   14.3410    8.3650 C.ar    1  UNL1        0.0000
     39  C          3.8040   14.1720    7.6240 C.ar    1  UNL1        0.0000
     40  C          4.9500   13.6170    8.2160 C.ar    1  UNL1        0.0000
     41  H          1.7880   14.0770   10.2440 H       1  UNL1        0.0000
     42  H          1.7910   14.7510    7.9390 H       1  UNL1        0.0000
     43  H          3.8260   14.4570    6.6320 H       1  UNL1        0.0000
@<TRIPOS>BOND
     1     1     2   ar
     2     1    31    1
     3     1     9   ar
     4     2    10    1
     5     2     3   ar
     6     3     4   ar
     7     3     7   ar
     8     4     5   ar
     9     5    13    1
    10     5     6   ar
    11     6     7   ar
    12     7     8   ar
    13     8     9   ar
    14     8    11    1
    15     9    12    1
    16    13    18   ar
    17    13    14   ar
    18    14    15   ar
    19    14    19    1
    20    15    16   ar
    21    15    20    1
    22    16    23    1
    23    16    17   ar
    24    17    21    1
    25    17    18   ar
    26    18    22    1
    27    23    24    1
    28    23    25    1
    29    23    26    1
    30    26    27    1
    31    26    28    1
    32    26    29    1
    33    30    31   am
    34    30    32    2
    35    30    40    1
    36    31    33    1
    37    34    35    1
    38    35    40   ar
    39    35    36   ar
    40    36    37   ar
    41    37    38   ar
    42    37    41    1
    43    38    39   ar
    44    38    42    1
    45    39    43    1
    46    39    40   ar
