@<TRIPOS>MOLECULE
UNL
 45 48 0 0 0
SMALL
GASTEIGER

@<TRIPOS>ATOM
      1  C          7.9250   12.1620    6.1740 C.ar    1  UNL1        0.0000
      2  C          8.2600   12.6260    4.8860 C.ar    1  UNL1        0.0000
      3  C          9.4740   12.2020    4.3150 C.ar    1  UNL1        0.0000
      4  N         10.0480   12.4260    3.0820 N.ar    1  UNL1        0.0000
      5  C         11.1380   11.6740    3.0950 C.ar    1  UNL1        0.0000
      6  O         11.3620   11.0340    4.2880 O.2     1  UNL1        0.0000
      7  C         10.2920   11.3650    5.0530 C.ar    1  UNL1        0.0000
      8  C         10.0380   10.9240    6.3400 C.ar    1  UNL1        0.0000
      9  C          8.8260   11.3500    6.8900 C.ar    1  UNL1        0.0000
     10  H          7.6290   13.2620    4.3740 H       1  UNL1        0.0000
     11  H         10.6960   10.3210    6.8560 H       1  UNL1        0.0000
     12  H          8.5850   11.0620    7.8500 H       1  UNL1        0.0000
     13  C         12.0880   11.3450    2.0340 C.ar    1  UNL1        0.0000
     14  C         13.1560   10.4710    2.2470 C.ar    1  UNL1        0.0000
     15  C         14.1020   10.2410    1.2370 C.ar    1  UNL1        0.0000
     16  C         14.0090   10.8830   -0.0100 C.ar    1  UNL1        0.0000
     17  C         12.9290   11.7410   -0.2270 C.ar    1  UNL1        0.0000
     18  C         11.9800   11.9600    0.7770 C.ar    1  UNL1        0.0000
     19  H         13.2490    9.9910    3.1560 H       1  UNL1        0.0000
     20  H         14.8810    9.5860    1.4120 H       1  UNL1        0.0000
     21  H         12.8300   12.2190   -1.1380 H       1  UNL1        0.0000
     22  H         11.1830   12.5880    0.5890 H       1  UNL1        0.0000
     23  C         15.1300   10.7290   -1.0120 C.3     1  UNL1        0.0000
     24  H         14.7050   10.8160   -1.9910 H       1  UNL1        0.0000
     25  H         15.5690    9.7750   -0.8040 H       1  UNL1        0.0000
     26  C         16.2740   11.7330   -0.9120 C.3     1  UNL1        0.0000
     27  H         17.1850   11.2700   -1.2300 H       1  UNL1        0.0000
     28  H         16.3750   12.0590    0.1030 H       1  UNL1        0.0000
     29  H         16.0640   12.5750   -1.5380 H       1  UNL1        0.0000
     30  C          5.5750   11.6280    6.8660 C.2     1  UNL1        0.0000
     31  N          6.6970   12.4230    6.8240 N.am    1  UNL1        0.0000
     32  O          5.4600   10.5520    6.2870 O.2     1  UNL1        0.0000
     33  H          6.6380   13.2790    7.3070 H       1  UNL1        0.0000
     34 CL          2.5100   12.0480    5.6950 Cl      1  UNL1        0.0000
     35  C          3.0880   12.2830    7.3100 C.ar    1  UNL1        0.0000
     36  C          2.1130   12.6960    8.2340 C.ar    1  UNL1        0.0000
     37  C          2.4440   12.9280    9.5690 C.ar    1  UNL1        0.0000
     38  C          3.7640   12.7610    9.9920 C.ar    1  UNL1        0.0000
     39  C          4.7350   12.3510    9.0730 C.ar    1  UNL1        0.0000
     40  C          4.4200   12.0930    7.7190 C.ar    1  UNL1        0.0000
     41  H          1.1380   12.8290    7.9220 H       1  UNL1        0.0000
     42  H          1.7180   13.2210   10.2400 H       1  UNL1        0.0000
     43  H          5.7090   12.2350    9.3930 H       1  UNL1        0.0000
     44  C          4.1130   13.0080   11.3600 C.1     1  UNL1        0.0000
     45  N          4.3860   13.2050   12.4670 N.1     1  UNL1        0.0000
@<TRIPOS>BOND
     1     1     2   ar
     2     1    31    1
     3     1     9   ar
     4     2     3   ar
     5     2    10    1
     6     3     4   ar
     7     3     7   ar
     8     4     5   ar
     9     5    13    1
    10     5     6   ar
    11     6     7   ar
    12     7     8   ar
    13     8    11    1
    14     8     9   ar
    15     9    12    1
    16    13    18   ar
    17    13    14   ar
    18    14    15   ar
    19    14    19    1
    20    15    16   ar
    21    15    20    1
    22    16    23    1
    23    16    17   ar
    24    17    21    1
    25    17    18   ar
    26    18    22    1
    27    23    24    1
    28    23    26    1
    29    23    25    1
    30    26    29    1
    31    26    27    1
    32    26    28    1
    33    30    32    2
    34    30    31   am
    35    30    40    1
    36    31    33    1
    37    34    35    1
    38    35    40   ar
    39    35    36   ar
    40    36    41    1
    41    36    37   ar
    42    37    38   ar
    43    37    42    1
    44    38    39   ar
    45    38    44    1
    46    39    40   ar
    47    39    43    1
    48    44    45    3
