@<TRIPOS>MOLECULE
UNL
 51 54 0 0 0
SMALL
GASTEIGER

@<TRIPOS>ATOM
      1  C          7.8290   11.2610    6.5950 C.ar    1  UNL1        0.0000
      2  C          9.1960   11.0570    6.3530 C.ar    1  UNL1        0.0000
      3  C          9.6870   11.2640    5.0560 C.ar    1  UNL1        0.0000
      4  N         10.9360   11.0620    4.5320 N.ar    1  UNL1        0.0000
      5  C         10.7880   11.3270    3.2470 C.ar    1  UNL1        0.0000
      6  O          9.5320   11.7630    2.8960 O.2     1  UNL1        0.0000
      7  C          8.8260   11.6990    4.0640 C.ar    1  UNL1        0.0000
      8  C          7.4800   11.9690    4.2600 C.ar    1  UNL1        0.0000
      9  C          6.9960   11.7220    5.5570 C.ar    1  UNL1        0.0000
     10  H          9.8270   10.7630    7.1140 H       1  UNL1        0.0000
     11  H          6.8750   12.3260    3.5050 H       1  UNL1        0.0000
     12  H          5.9960   11.8840    5.7540 H       1  UNL1        0.0000
     13  C         11.7510   11.1090    2.1680 C.ar    1  UNL1        0.0000
     14  C         11.4250   11.5330    0.8720 C.ar    1  UNL1        0.0000
     15  C         12.3460   11.4350   -0.1740 C.ar    1  UNL1        0.0000
     16  C         13.6160   10.8980    0.0530 C.ar    1  UNL1        0.0000
     17  C         13.9430   10.4510    1.3390 C.ar    1  UNL1        0.0000
     18  C         13.0180   10.5520    2.3860 C.ar    1  UNL1        0.0000
     19  H         10.4880   11.9260    0.6870 H       1  UNL1        0.0000
     20  H         12.0860   11.7600   -1.1190 H       1  UNL1        0.0000
     21  H         14.8740   10.0440    1.5170 H       1  UNL1        0.0000
     22  H         13.2730   10.2130    3.3270 H       1  UNL1        0.0000
     23  C         14.6290   10.8490   -1.0630 C.3     1  UNL1        0.0000
     24  H         14.2070   11.3030   -1.9340 H       1  UNL1        0.0000
     25  H         14.8750    9.8230   -1.2450 H       1  UNL1        0.0000
     26  C         15.9110   11.5840   -0.6960 C.3     1  UNL1        0.0000
     27  H         15.6690   12.4720   -0.1500 H       1  UNL1        0.0000
     28  H         16.4390   11.8460   -1.5880 H       1  UNL1        0.0000
     29  H         16.5260   10.9500   -0.0910 H       1  UNL1        0.0000
     30  C          7.4580    9.8730    8.6510 C.2     1  UNL1        0.0000
     31  N          7.2130   10.9610    7.8320 N.am    1  UNL1        0.0000
     32  O          8.3710    9.0640    8.5010 O.2     1  UNL1        0.0000
     33  H          6.5320   11.5990    8.1470 H       1  UNL1        0.0000
     34 CL          6.5350   12.2550   10.6720 Cl      1  UNL1        0.0000
     35  C          6.0340   10.6000   10.6800 C.ar    1  UNL1        0.0000
     36  C          5.1130   10.2460   11.6710 C.ar    1  UNL1        0.0000
     37  C          4.6620    8.9290   11.7820 C.ar    1  UNL1        0.0000
     38  C          5.1260    7.9350   10.9130 C.ar    1  UNL1        0.0000
     39  C          6.0510    8.2930    9.9240 C.ar    1  UNL1        0.0000
     40  C          6.5070    9.6290    9.7850 C.ar    1  UNL1        0.0000
     41  H          4.7640   10.9640   12.3250 H       1  UNL1        0.0000
     42  H          3.9760    8.6860   12.5140 H       1  UNL1        0.0000
     43  H          6.4070    7.5690    9.2800 H       1  UNL1        0.0000
     44  C          4.5650    6.5570   11.0860 C.2     1  UNL1        0.0000
     45  N          3.3330    6.4190   11.6890 N.am    1  UNL1        0.0000
     46  O          5.2200    5.5960   10.6940 O.2     1  UNL1        0.0000
     47  H          2.8290    7.2250   11.9470 H       1  UNL1        0.0000
     48  C          2.7670    5.1140   11.9480 C.3     1  UNL1        0.0000
     49  H          1.9050    4.9700   11.3310 H       1  UNL1        0.0000
     50  H          2.4830    5.0460   12.9780 H       1  UNL1        0.0000
     51  H          3.4930    4.3600   11.7280 H       1  UNL1        0.0000
@<TRIPOS>BOND
     1     1     9   ar
     2     1     2   ar
     3     1    31    1
     4     2     3   ar
     5     2    10    1
     6     3     7   ar
     7     3     4   ar
     8     4     5   ar
     9     5    13    1
    10     5     6   ar
    11     6     7   ar
    12     7     8   ar
    13     8    11    1
    14     8     9   ar
    15     9    12    1
    16    13    14   ar
    17    13    18   ar
    18    14    15   ar
    19    14    19    1
    20    15    20    1
    21    15    16   ar
    22    16    23    1
    23    16    17   ar
    24    17    21    1
    25    17    18   ar
    26    18    22    1
    27    23    24    1
    28    23    25    1
    29    23    26    1
    30    26    28    1
    31    26    27    1
    32    26    29    1
    33    30    31   am
    34    30    32    2
    35    30    40    1
    36    31    33    1
    37    34    35    1
    38    35    40   ar
    39    35    36   ar
    40    36    37   ar
    41    36    41    1
    42    37    38   ar
    43    37    42    1
    44    38    39   ar
    45    38    44    1
    46    39    43    1
    47    39    40   ar
    48    44    46    2
    49    44    45   am
    50    45    47    1
    51    45    48    1
    52    48    49    1
    53    48    51    1
    54    48    50    1
