@<TRIPOS>MOLECULE
UNL
 36 41 0 0 0
SMALL
GASTEIGER

@<TRIPOS>ATOM
      1  O          6.6170   11.1380    7.0050 O.2     1  UNL1        0.0000
      2  C          6.7480   11.6300    5.8940 C.2     1  UNL1        0.0000
      3  C          5.6010   12.1320    5.0680 C.3     1  UNL1        0.0000
      4  C          6.2850   12.6560    3.8110 C.3     1  UNL1        0.0000
      5  C          7.7360   12.3500    4.0090 C.ar    1  UNL1        0.0000
      6  C          8.8000   12.5610    3.0240 C.ar    1  UNL1        0.0000
      7  C         10.0950   12.1740    3.4130 C.ar    1  UNL1        0.0000
      8  C         11.1570   12.2410    2.5300 C.ar    1  UNL1        0.0000
      9  C         10.9300   12.6670    1.2350 C.ar    1  UNL1        0.0000
     10  C          9.6900   13.1080    0.8110 C.ar    1  UNL1        0.0000
     11  C          8.6210   13.0870    1.7210 C.ar    1  UNL1        0.0000
     12  O         12.0300   12.6030    0.4220 O.3     1  UNL1        0.0000
     13  C         13.0020   11.8780    1.2080 C.3     1  UNL1        0.0000
     14  O         13.0420   10.4720    0.8530 O.3     1  UNL1        0.0000
     15  C         13.1540    9.7090    2.0800 C.3     1  UNL1        0.0000
     16  C         12.9140   10.6080    3.2400 C.3     1  UNL1        0.0000
     17  O         14.2220   10.1010    2.9550 O.3     1  UNL1        0.0000
     18  C         12.6060   11.9540    2.7050 C.3     1  UNL1        0.0000
     19  C          8.0230   11.7870    5.1900 C.ar    1  UNL1        0.0000
     20  C          9.3550   11.3930    5.6250 C.ar    1  UNL1        0.0000
     21  O         10.3640   11.6720    4.7040 O.2     1  UNL1        0.0000
     22  O          9.6060   10.8660    6.6980 O.2     1  UNL1        0.0000
     23  H          5.0760   12.9150    5.5750 H       1  UNL1        0.0000
     24  H          4.8660   11.3810    4.8660 H       1  UNL1        0.0000
     25  H          6.1330   13.7100    3.7110 H       1  UNL1        0.0000
     26  H          5.8970   12.2070    2.9220 H       1  UNL1        0.0000
     27  H          9.5520   13.4450   -0.1540 H       1  UNL1        0.0000
     28  H         13.9570   12.3220    1.0200 H       1  UNL1        0.0000
     29  H         12.8150    8.7620    1.7130 H       1  UNL1        0.0000
     30  H         12.3320   10.6400    4.1380 H       1  UNL1        0.0000
     31  H         13.0750   12.6550    3.3640 H       1  UNL1        0.0000
     32  O          7.3660   13.5210    1.3720 O.3     1  UNL1        0.0000
     33  C          7.2070   13.9030    0.0080 C.3     1  UNL1        0.0000
     34  H          8.0720   13.6030   -0.5490 H       1  UNL1        0.0000
     35  H          7.0940   14.9640   -0.0550 H       1  UNL1        0.0000
     36  H          6.3390   13.4260   -0.3970 H       1  UNL1        0.0000
@<TRIPOS>BOND
     1     1     2    2
     2     2     3    1
     3     2    19    1
     4     3     4    1
     5     3    24    1
     6     3    23    1
     7     4    26    1
     8     4    25    1
     9     4     5    1
    10     5     6   ar
    11     5    19   ar
    12     6    11   ar
    13     6     7   ar
    14     7     8   ar
    15     7    21   ar
    16     8     9   ar
    17     8    18    1
    18     9    12    1
    19     9    10   ar
    20    10    27    1
    21    10    11   ar
    22    11    32    1
    23    12    13    1
    24    13    14    1
    25    13    28    1
    26    13    18    1
    27    14    15    1
    28    15    29    1
    29    15    17    1
    30    15    16    1
    31    16    18    1
    32    16    17    1
    33    16    30    1
    34    18    31    1
    35    19    20   ar
    36    20    21   ar
    37    20    22    2
    38    32    33    1
    39    33    34    1
    40    33    36    1
    41    33    35    1
