@<TRIPOS>MOLECULE
UNL
 27 26 0 0 0
SMALL
GASTEIGER

@<TRIPOS>ATOM
      1  C         13.7520   10.1170    1.3320 C.3     1  UNL1        0.0000
      2  H         12.8900    9.6190    0.9380 H       1  UNL1        0.0000
      3  H         14.5900    9.4570    1.4050 H       1  UNL1        0.0000
      4  C         14.1370   11.2510    0.3800 C.3     1  UNL1        0.0000
      5  H         15.1770   11.1650    0.1410 H       1  UNL1        0.0000
      6  H         13.9340   12.1820    0.8670 H       1  UNL1        0.0000
      7  C         13.3260   11.2020   -0.9120 C.3     1  UNL1        0.0000
      8  H         13.3520   10.2060   -1.3050 H       1  UNL1        0.0000
      9  H         13.7540   11.8890   -1.6120 H       1  UNL1        0.0000
     10  C         11.8730   11.6020   -0.6600 C.3     1  UNL1        0.0000
     11  H         11.8540   12.4650   -0.0280 H       1  UNL1        0.0000
     12  H         11.3720   10.7800   -0.1930 H       1  UNL1        0.0000
     13  C         11.1550   11.9250   -1.9590 C.3     1  UNL1        0.0000
     14  H         10.5910   12.8250   -1.8400 H       1  UNL1        0.0000
     15  H         10.4960   11.1220   -2.2120 H       1  UNL1        0.0000
     16  H         11.8740   12.0560   -2.7410 H       1  UNL1        0.0000
     17  C         13.4280   10.6140    2.7460 C.3     1  UNL1        0.0000
     18  H         13.7770   11.6240    2.8030 H       1  UNL1        0.0000
     19  C         11.2290   11.7240    3.1580 C.2     1  UNL1        0.0000
     20  C         11.9570   10.6010    3.0440 C.2     1  UNL1        0.0000
     21  H         11.6960   12.6400    3.0820 H       1  UNL1        0.0000
     22  H         11.4850    9.6910    3.1680 H       1  UNL1        0.0000
     23  O          8.9800   12.0010    2.5220 O.2     1  UNL1        0.0000
     24  C          9.7730   11.6680    3.3900 C.2     1  UNL1        0.0000
     25  H          9.4190   11.3420    4.3030 H       1  UNL1        0.0000
     26  O         14.0680    9.7780    3.7020 O.3     1  UNL1        0.0000
     27  H         13.9900    8.8510    3.4240 H       1  UNL1        0.0000
@<TRIPOS>BOND
     1     1     4    1
     2     1     2    1
     3     1     3    1
     4     1    17    1
     5     4     7    1
     6     4     5    1
     7     4     6    1
     8     7     9    1
     9     7     8    1
    10     7    10    1
    11    10    13    1
    12    10    12    1
    13    10    11    1
    14    13    16    1
    15    13    15    1
    16    13    14    1
    17    17    18    1
    18    17    20    1
    19    17    26    1
    20    19    20    2
    21    19    21    1
    22    19    24    1
    23    20    22    1
    24    23    24    2
    25    24    25    1
    26    26    27    1
