@<TRIPOS>MOLECULE
UNL
 8 7 0 0 0
SMALL
GASTEIGER

@<TRIPOS>ATOM
      1 CL         11.2170   11.7310    3.1490 Cl      1  UNL1       -0.0924
      2  C         11.8810   10.4740    2.0670 C.3     1  UNL1        0.2034
      3 CL         11.7020   10.9830    0.3800 Cl      1  UNL1       -0.0924
      4  H         11.3370    9.5690    2.2350 H       1  UNL1        0.0752
      5  C         13.3520   10.2140    2.3650 C.2     1  UNL1        0.3378
      6  O         14.1700   10.1130    1.2840 O.2     1  UNL1       -0.2480
      7  O         13.8060   10.1150    3.5000 O.3     1  UNL1       -0.4788
      8 H          13.2361   10.1857    4.2404 H       1  UNL1        0.2951
@<TRIPOS>BOND
     1     1     2    1
     2     2     3    1
     3     2     4    1
     4     2     5    1
     5     5     6    2
     6     5     7    1
     7     7     8    1
