@<TRIPOS>MOLECULE
UNL
 16 16 0 0 0
SMALL
GASTEIGER

@<TRIPOS>ATOM
      1 CL         14.5460   10.4630    0.1450 Cl      1  UNL1        0.0000
      2  C         12.9920   10.8630    0.7760 C.ar    1  UNL1        0.0000
      3  C         12.5310   10.4400    2.0260 C.ar    1  UNL1        0.0000
      4  C         11.2780   10.8290    2.5250 C.ar    1  UNL1        0.0000
      5  C         10.4700   11.6550    1.7330 C.ar    1  UNL1        0.0000
      6  C         10.9100   12.0820    0.4720 C.ar    1  UNL1        0.0000
      7  C         12.1690   11.6870    0.0010 C.ar    1  UNL1        0.0000
      8  H         10.9590   10.5130    3.4530 H       1  UNL1        0.0000
      9  H         10.3070   12.6880   -0.1070 H       1  UNL1        0.0000
     10  H         12.4920   12.0050   -0.9260 H       1  UNL1        0.0000
     11  N         13.3440    9.5790    2.8580 N.pl3   1  UNL1        0.0000
     12  O         13.1100    8.3660    2.8180 O.2     1  UNL1        0.0000
     13  O         14.1670   10.1370    3.5940 O.2     1  UNL1        0.0000
     14  N          9.1520   12.0740    2.2260 N.pl3   1  UNL1        0.0000
     15  O          8.4410   12.7390    1.4620 O.2     1  UNL1        0.0000
     16  O          8.8360   11.7380    3.3750 O.2     1  UNL1        0.0000
@<TRIPOS>BOND
     1     1     2    1
     2     2     7   ar
     3     2     3   ar
     4     3     4   ar
     5     3    11    1
     6     4     5   ar
     7     4     8    1
     8     5     6   ar
     9     5    14    1
    10     6     9    1
    11     6     7   ar
    12     7    10    1
    13    11    12    2
    14    11    13    2
    15    14    15    2
    16    14    16    2
