@<TRIPOS>MOLECULE
UNL
 14 14 0 0 0
SMALL
GASTEIGER

@<TRIPOS>ATOM
      1 CL          8.7990   13.1240    1.0430 Cl      1  UNL1        0.0000
      2  C         10.0640   12.1310    1.6750 C.ar    1  UNL1        0.0000
      3  C         10.3400   12.0480    3.0470 C.ar    1  UNL1        0.0000
      4 CL          9.4540   12.9530    4.2230 Cl      1  UNL1        0.0000
      5  C         11.3630   11.2130    3.5090 C.ar    1  UNL1        0.0000
      6  C         12.1090   10.4630    2.5900 C.ar    1  UNL1        0.0000
      7  C         11.8480   10.5520    1.2160 C.ar    1  UNL1        0.0000
      8  C         10.8220   11.3870    0.7640 C.ar    1  UNL1        0.0000
      9  H         11.5650   11.1490    4.5180 H       1  UNL1        0.0000
     10  H         12.4080   10.0050    0.5440 H       1  UNL1        0.0000
     11  H         10.6230   11.4550   -0.2460 H       1  UNL1        0.0000
     12  N         13.1680    9.5680    3.0730 N.pl3   1  UNL1        0.0000
     13  O         13.0230    8.3530    2.8850 O.2     1  UNL1        0.0000
     14  O         14.1440   10.0840    3.6360 O.2     1  UNL1        0.0000
@<TRIPOS>BOND
     1     1     2    1
     2     2     8   ar
     3     2     3   ar
     4     3     5   ar
     5     3     4    1
     6     5     6   ar
     7     5     9    1
     8     6     7   ar
     9     6    12    1
    10     7    10    1
    11     7     8   ar
    12     8    11    1
    13    12    13    2
    14    12    14    2
