@<TRIPOS>MOLECULE
UNL
 31 31 0 0 0
SMALL
GASTEIGER

@<TRIPOS>ATOM
      1 CL          8.2760   15.3190    5.2630 Cl      1  UNL1       -0.0782
      2  C          8.9230   13.7120    5.1030 C.ar    1  UNL1        0.1015
      3  C          9.5220   13.3340    3.8710 C.ar    1  UNL1        0.0736
      4 CL          9.5170   14.4450    2.5280 Cl      1  UNL1       -0.0812
      5  C         10.1600   12.0850    3.7500 C.ar    1  UNL1        0.0418
      6  C         10.1800   11.2170    4.8490 C.ar    1  UNL1       -0.0460
      7  C          9.5860   11.5890    6.0560 C.ar    1  UNL1       -0.0177
      8  C          8.9310   12.8190    6.1940 C.ar    1  UNL1        0.1410
      9  H         10.6370   10.2950    4.7650 H       1  UNL1        0.0626
     10  H          9.6330   10.9460    6.8620 H       1  UNL1        0.0655
     11  C         10.7440   11.6140    2.4620 C.2     1  UNL1        0.1901
     12  O         10.0200   11.0580    1.6460 O.2     1  UNL1       -0.2870
     13  C         12.2260   11.7200    2.2130 C.2     1  UNL1       -0.0074
     14  C         12.9250   12.8550    2.3890 C.2     1  UNL1       -0.0919
     15  H         12.4470   13.7090    2.7170 H       1  UNL1        0.0539
     16  H         13.9390   12.8720    2.1970 H       1  UNL1        0.0539
     17  C         12.8980   10.4510    1.7330 C.3     1  UNL1       -0.0274
     18  H         13.8630   10.7000    1.3440 H       1  UNL1        0.0311
     19  H         12.2710   10.0170    0.9820 H       1  UNL1        0.0311
     20  C         13.0680    9.4240    2.8440 C.3     1  UNL1       -0.0612
     21  H         13.9340    8.8270    2.6470 H       1  UNL1        0.0233
     22  H         12.2030    8.7950    2.8830 H       1  UNL1        0.0233
     23  H         13.1860    9.9270    3.7800 H       1  UNL1        0.0233
     24  O          8.4230   12.9920    7.4580 O.3     1  UNL1       -0.4793
     25  C          7.0120   12.8370    7.6510 C.3     1  UNL1        0.1858
     26  H          6.5550   12.5710    6.7220 H       1  UNL1        0.0815
     27  H          6.6060   13.7610    8.0070 H       1  UNL1        0.0815
     28  C          6.7350   11.7480    8.6780 C.2     1  UNL1        0.3427
     29  O          6.9350   10.4950    8.2050 O.2     1  UNL1       -0.2472
     30  O          6.3690   11.9660    9.8240 O.3     1  UNL1       -0.4783
     31 H           6.2412   12.8473   10.1154 H       1  UNL1        0.2952
@<TRIPOS>BOND
     1     1     2    1
     2     2     3   ar
     3     2     8   ar
     4     3     4    1
     5     3     5   ar
     6     5    11    1
     7     5     6   ar
     8     6     9    1
     9     6     7   ar
    10     7     8   ar
    11     7    10    1
    12     8    24    1
    13    11    12    2
    14    11    13    1
    15    13    17    1
    16    13    14    2
    17    14    16    1
    18    14    15    1
    19    17    19    1
    20    17    18    1
    21    17    20    1
    22    20    21    1
    23    20    22    1
    24    20    23    1
    25    24    25    1
    26    25    26    1
    27    25    27    1
    28    25    28    1
    29    28    29    2
    30    28    30    1
    31    30    31    1
