@<TRIPOS>MOLECULE
UNL
 27 29 0 0 0
SMALL
GASTEIGER

@<TRIPOS>ATOM
      1  C         11.4400   10.4730    2.5540 C.3     1  UNL1        0.0000
      2  C         11.2040   11.6240    3.5200 C.3     1  UNL1        0.0000
      3  O         12.1240   10.5610    3.8140 O.3     1  UNL1        0.0000
      4  H         10.8240    9.7500    2.0610 H       1  UNL1        0.0000
      5  H         11.2470   12.6920    3.4590 H       1  UNL1        0.0000
      6  C         12.2210   10.7250    1.2900 C.ar    1  UNL1        0.0000
      7  C         11.6000   11.2030    0.1260 C.ar    1  UNL1        0.0000
      8  C         12.3360   11.4600   -1.0360 C.ar    1  UNL1        0.0000
      9  C         13.7110   11.2410   -1.0550 C.ar    1  UNL1        0.0000
     10  C         14.3490   10.7650    0.0870 C.ar    1  UNL1        0.0000
     11  C         13.6100   10.5140    1.2460 C.ar    1  UNL1        0.0000
     12  H         10.5830   11.3700    0.1260 H       1  UNL1        0.0000
     13  H         11.8580   11.8110   -1.8810 H       1  UNL1        0.0000
     14  H         14.2550   11.4290   -1.9120 H       1  UNL1        0.0000
     15  H         15.3680   10.5990    0.0780 H       1  UNL1        0.0000
     16  H         14.0950   10.1670    2.0870 H       1  UNL1        0.0000
     17  C          9.9140   11.6940    4.2960 C.ar    1  UNL1        0.0000
     18  C          8.7210   12.1310    3.6970 C.ar    1  UNL1        0.0000
     19  C          7.5150   12.1460    4.4030 C.ar    1  UNL1        0.0000
     20  C          7.4780   11.7240    5.7280 C.ar    1  UNL1        0.0000
     21  C          8.6470   11.2940    6.3490 C.ar    1  UNL1        0.0000
     22  C          9.8500   11.2790    5.6370 C.ar    1  UNL1        0.0000
     23  H          8.7350   12.4470    2.7150 H       1  UNL1        0.0000
     24  H          6.6510   12.4690    3.9400 H       1  UNL1        0.0000
     25  H          6.5880   11.7300    6.2490 H       1  UNL1        0.0000
     26  H          8.6260   10.9860    7.3340 H       1  UNL1        0.0000
     27  H         10.7090   10.9550    6.1070 H       1  UNL1        0.0000
@<TRIPOS>BOND
     1     1     6    1
     2     1     4    1
     3     1     2    1
     4     1     3    1
     5     2     5    1
     6     2     3    1
     7     2    17    1
     8     6     7   ar
     9     6    11   ar
    10     7     8   ar
    11     7    12    1
    12     8    13    1
    13     8     9   ar
    14     9    14    1
    15     9    10   ar
    16    10    15    1
    17    10    11   ar
    18    11    16    1
    19    17    18   ar
    20    17    22   ar
    21    18    23    1
    22    18    19   ar
    23    19    24    1
    24    19    20   ar
    25    20    25    1
    26    20    21   ar
    27    21    22   ar
    28    21    26    1
    29    22    27    1
