@<TRIPOS>MOLECULE
UNL
 23 24 0 0 0
SMALL
GASTEIGER

@<TRIPOS>ATOM
      1  C          9.8380   11.9950    4.7000 C.ar    1  UNL1        0.0000
      2  C          9.2980   13.2710    4.5070 C.ar    1  UNL1        0.0000
      3  C          8.5600   13.8630    5.5360 C.ar    1  UNL1        0.0000
      4  C          8.3490   13.1860    6.7410 C.ar    1  UNL1        0.0000
      5  C          8.9350   11.9360    6.9430 C.ar    1  UNL1        0.0000
      6  C          9.6720   11.3290    5.9210 C.ar    1  UNL1        0.0000
      7  H          9.4450   13.7700    3.6160 H       1  UNL1        0.0000
      8  H          8.1680   14.8080    5.4040 H       1  UNL1        0.0000
      9  H          8.8240   11.4570    7.8500 H       1  UNL1        0.0000
     10  H         10.0920   10.3980    6.0660 H       1  UNL1        0.0000
     11  O         10.0110   11.2430    2.5130 O.2     1  UNL1        0.0000
     12  N         10.5740   11.3360    3.6130 N.pl3   1  UNL1        0.0000
     13  O         11.7100   10.9090    3.8590 O.2     1  UNL1        0.0000
     14  O          7.5520   13.8410    7.6410 O.3     1  UNL1        0.0000
     15  C          7.8250   13.5850    9.0220 C.3     1  UNL1        0.0000
     16  H          8.2540   14.4560    9.4720 H       1  UNL1        0.0000
     17  H          8.5140   12.7730    9.1140 H       1  UNL1        0.0000
     18  C          6.5410   13.2460    9.7050 C.3     1  UNL1        0.0000
     19  O          6.6760   12.9720   11.1070 O.3     1  UNL1        0.0000
     20  C          6.2970   11.8710   10.2690 C.3     1  UNL1        0.0000
     21  H          5.9680   13.8780    9.0590 H       1  UNL1        0.0000
     22  H          6.9890   11.0790   10.0760 H       1  UNL1        0.0000
     23  H          5.4920   11.1670   10.2490 H       1  UNL1        0.0000
@<TRIPOS>BOND
     1     1    12    1
     2     1     2   ar
     3     1     6   ar
     4     2     7    1
     5     2     3   ar
     6     3     8    1
     7     3     4   ar
     8     4     5   ar
     9     4    14    1
    10     5     6   ar
    11     5     9    1
    12     6    10    1
    13    11    12    2
    14    12    13    2
    15    14    15    1
    16    15    17    1
    17    15    16    1
    18    15    18    1
    19    18    21    1
    20    18    20    1
    21    18    19    1
    22    19    20    1
    23    20    22    1
    24    20    23    1
