@<TRIPOS>MOLECULE
UNL
 22 21 0 0 0
SMALL
GASTEIGER

@<TRIPOS>ATOM
      1  C         11.1220   11.9970    3.0440 C.3     1  UNL1        0.0689
      2  H         11.0480   12.9600    2.5840 H       1  UNL1        0.0422
      3  H         11.9670   11.9100    3.6950 H       1  UNL1        0.0422
      4  C         11.3070   10.9670    1.9580 C.2     1  UNL1        0.1514
      5  O         10.3860   10.5720    1.2380 O.2     1  UNL1       -0.2964
      6  C         12.7050   10.4740    1.7160 C.3     1  UNL1        0.1035
      7  H         12.7010    9.9010    0.8130 H       1  UNL1        0.0456
      8  H         13.3210   11.3480    1.6680 H       1  UNL1        0.0456
      9  O         12.9120    8.3220    2.8170 O.2     1  UNL1       -0.2505
     10  C         13.2870    9.6180    2.8060 C.2     1  UNL1        0.3119
     11  O         14.0130   10.0830    3.6740 O.3     1  UNL1       -0.4803
     12  C          9.9020   11.7870    3.8920 C.2     1  UNL1        0.1634
     13  O          8.7790   11.9460    3.4080 O.2     1  UNL1       -0.2922
     14  C          9.9710   11.3010    5.2990 C.2     1  UNL1       -0.0121
     15  C          9.4280   11.7000    6.4580 C.2     1  UNL1        0.0256
     16  H         10.5740   10.4700    5.4050 H       1  UNL1        0.0655
     17  H          9.7040   11.1480    7.2850 H       1  UNL1        0.0690
     18  C          8.4990   12.8050    6.7220 C.2     1  UNL1        0.3297
     19  O          7.6250   12.4430    7.6720 O.3     1  UNL1       -0.4775
     20  O          8.4720   13.9040    6.2120 O.2     1  UNL1       -0.2458
     21 H          14.2594   10.9865    3.6442 H       1  UNL1        0.2951
     22 H           7.6702   11.5861    8.0482 H       1  UNL1        0.2954
@<TRIPOS>BOND
     1     1     4    1
     2     1     2    1
     3     1     3    1
     4     1    12    1
     5     4     5    2
     6     4     6    1
     7     6     7    1
     8     6     8    1
     9     6    10    1
    10     9    10    2
    11    10    11    1
    12    11    21    1
    13    12    13    2
    14    12    14    1
    15    14    16    1
    16    14    15    2
    17    15    18    1
    18    15    17    1
    19    18    20    2
    20    18    19    1
    21    19    22    1
