@<TRIPOS>MOLECULE
UNL
 39 44 0 0 0
SMALL
GASTEIGER

@<TRIPOS>ATOM
      1  C          7.7090   12.6790    4.6320 C.3     1  UNL1        0.0000
      2  C          8.5950   13.8470    4.1120 C.3     1  UNL1        0.0000
      3  C          9.7660   13.4180    3.2290 C.ar    1  UNL1        0.0000
      4  C         10.3210   14.3050    2.2870 C.ar    1  UNL1        0.0000
      5  C         11.4710   13.9740    1.5530 C.ar    1  UNL1        0.0000
      6  C         12.0680   12.7100    1.7260 C.ar    1  UNL1        0.0000
      7  C         13.2140   12.3800    0.9580 C.ar    1  UNL1        0.0000
      8  C         13.7990   13.3330    0.1020 C.ar    1  UNL1        0.0000
      9  C         13.2070   14.5880   -0.0410 C.ar    1  UNL1        0.0000
     10  C         12.0410   14.8980    0.6620 C.ar    1  UNL1        0.0000
     11  C         11.5190   11.8150    2.6820 C.ar    1  UNL1        0.0000
     12  C         12.1970   10.4750    2.9000 C.3     1  UNL1        0.0000
     13  C         13.3270   10.1680    1.9650 C.2     1  UNL1        0.0000
     14  C         13.8030   11.0250    1.0480 C.2     1  UNL1        0.0000
     15  C         14.9070   10.6410    0.0940 C.3     1  UNL1        0.0000
     16  C         15.5550   11.8000   -0.6020 C.2     1  UNL1        0.0000
     17  C         15.0490   13.0400   -0.6090 C.2     1  UNL1        0.0000
     18  C         10.3840   12.1660    3.4640 C.ar    1  UNL1        0.0000
     19  C          9.8500   11.2520    4.5540 C.3     1  UNL1        0.0000
     20  C          8.4990   11.5260    5.1470 C.3     1  UNL1        0.0000
     21  O          9.6920   11.8290    5.8710 O.3     1  UNL1        0.0000
     22  H          7.1460   13.1090    5.4350 H       1  UNL1        0.0000
     23  H          9.0780   14.2840    4.9610 H       1  UNL1        0.0000
     24  H          9.8720   15.2220    2.1330 H       1  UNL1        0.0000
     25  H         13.6320   15.2900   -0.6670 H       1  UNL1        0.0000
     26  H         11.5930   15.8170    0.5250 H       1  UNL1        0.0000
     27  H         11.4580    9.7090    2.7900 H       1  UNL1        0.0000
     28  H         12.6280   10.5190    3.8790 H       1  UNL1        0.0000
     29  H         13.7670    9.2370    2.0310 H       1  UNL1        0.0000
     30  H         14.4940    9.9920   -0.6500 H       1  UNL1        0.0000
     31  H         15.6680   10.1720    0.6820 H       1  UNL1        0.0000
     32  H         16.4410   11.6330   -1.1050 H       1  UNL1        0.0000
     33  H         15.5400   13.7920   -1.1170 H       1  UNL1        0.0000
     34  H         10.3270   10.3950    4.1270 H       1  UNL1        0.0000
     35  H          7.6210   10.9390    5.3180 H       1  UNL1        0.0000
     36  O          6.8360   12.1750    3.6120 O.3     1  UNL1        0.0000
     37  H          5.9330   12.1180    3.9590 H       1  UNL1        0.0000
     38  O          7.7530   14.8180    3.4760 O.3     1  UNL1        0.0000
     39  H          8.0290   14.9300    2.5530 H       1  UNL1        0.0000
@<TRIPOS>BOND
     1     1    36    1
     2     1     2    1
     3     1    20    1
     4     1    22    1
     5     2     3    1
     6     2    38    1
     7     2    23    1
     8     3     4   ar
     9     3    18   ar
    10     4     5   ar
    11     4    24    1
    12     5    10   ar
    13     5     6   ar
    14     6     7   ar
    15     6    11   ar
    16     7     8   ar
    17     7    14    1
    18     8    17    1
    19     8     9   ar
    20     9    25    1
    21     9    10   ar
    22    10    26    1
    23    11    12    1
    24    11    18   ar
    25    12    13    1
    26    12    27    1
    27    12    28    1
    28    13    14    2
    29    13    29    1
    30    14    15    1
    31    15    30    1
    32    15    16    1
    33    15    31    1
    34    16    32    1
    35    16    17    2
    36    17    33    1
    37    18    19    1
    38    19    34    1
    39    19    20    1
    40    19    21    1
    41    20    35    1
    42    20    21    1
    43    36    37    1
    44    38    39    1
