@<TRIPOS>MOLECULE
UNL
 17 18 0 0 0
SMALL
GASTEIGER

@<TRIPOS>ATOM
      1  C         12.5910   10.8130    1.2400 C.ar    1  UNL1        0.0000
      2  C         13.2100   11.1130    0.0130 C.ar    1  UNL1        0.0000
      3  C         12.4680   11.5290   -1.0960 C.ar    1  UNL1        0.0000
      4  C         11.0850   11.6540   -0.9990 C.ar    1  UNL1        0.0000
      5  C         10.4470   11.3650    0.2040 C.ar    1  UNL1        0.0000
      6  C         11.1950   10.9470    1.3080 C.ar    1  UNL1        0.0000
      7  H         14.2350   11.0250   -0.0690 H       1  UNL1        0.0000
      8  H         12.9450   11.7430   -1.9850 H       1  UNL1        0.0000
      9  H         10.5340   11.9590   -1.8170 H       1  UNL1        0.0000
     10  H          9.4220   11.4590    0.2800 H       1  UNL1        0.0000
     11  H         10.7110   10.7320    2.1920 H       1  UNL1        0.0000
     12  C         13.3890   10.3350    2.4220 C.3     1  UNL1        0.0000
     13  C         13.1660    8.9500    2.9840 C.3     1  UNL1        0.0000
     14  O         12.6880   10.1160    3.6600 O.3     1  UNL1        0.0000
     15  H         14.2460   10.8860    2.0940 H       1  UNL1        0.0000
     16  H         13.9860    8.3920    3.3850 H       1  UNL1        0.0000
     17  H         12.7290    8.0410    2.6250 H       1  UNL1        0.0000
@<TRIPOS>BOND
     1     1     2   ar
     2     1     6   ar
     3     1    12    1
     4     2     3   ar
     5     2     7    1
     6     3     8    1
     7     3     4   ar
     8     4     9    1
     9     4     5   ar
    10     5    10    1
    11     5     6   ar
    12     6    11    1
    13    12    15    1
    14    12    13    1
    15    12    14    1
    16    13    17    1
    17    13    16    1
    18    13    14    1
