@<TRIPOS>MOLECULE
UNL
 10 9 0 0 0
SMALL
GASTEIGER

@<TRIPOS>ATOM
      1 CL         11.2410   14.5140   -0.5990 Cl      1  UNL1        0.0000
      2  C         11.7630   12.9240   -0.1380 C.2     1  UNL1        0.0000
      3 CL         11.2010   11.6410   -1.1700 Cl      1  UNL1        0.0000
      4  C         12.5330   12.6920    0.9390 C.2     1  UNL1        0.0000
      5 CL         13.0700   13.9900    1.9800 Cl      1  UNL1        0.0000
      6  C         12.9980   11.3750    1.3530 C.2     1  UNL1        0.0000
      7 CL         14.2730   10.7270    0.3500 Cl      1  UNL1        0.0000
      8  C         12.5130   10.6890    2.4080 C.2     1  UNL1        0.0000
      9 CL         13.1060    9.1240    2.8700 Cl      1  UNL1        0.0000
     10 CL         11.2270   11.3090    3.4020 Cl      1  UNL1        0.0000
@<TRIPOS>BOND
     1     1     2    1
     2     2     3    1
     3     2     4    2
     4     4     6    1
     5     4     5    1
     6     6     7    1
     7     6     8    2
     8     8     9    1
     9     8    10    1
