@<TRIPOS>MOLECULE
UNL
 6 5 0 0 0
SMALL
GASTEIGER

@<TRIPOS>ATOM
      1 CL         13.6720    9.8210    1.9290 Cl      1  UNL1        0.0000
      2  C         12.4960   10.8730    1.2290 C.2     1  UNL1        0.0000
      3 CL         12.6240   11.1820   -0.4690 Cl      1  UNL1        0.0000
      4  C         11.5140   11.4470    1.9290 C.2     1  UNL1        0.0000
      5 CL         11.2350   11.2570    3.6090 Cl      1  UNL1        0.0000
      6  H         10.8650   12.0590    1.4110 H       1  UNL1        0.0000
@<TRIPOS>BOND
     1     1     2    1
     2     2     3    1
     3     2     4    2
     4     4     6    1
     5     4     5    1
