@<TRIPOS>MOLECULE
UNL
 5 4 0 0 0
SMALL
GASTEIGER

@<TRIPOS>ATOM
      1  C         13.7300   10.0870    1.6340 C.3     1  UNL1        0.0000
      2 CL         12.4170   10.7660    0.6650 Cl      1  UNL1        0.0000
      3 CL         13.1010    9.0580    2.9250 Cl      1  UNL1        0.0000
      4  H         14.2930   10.8860    2.0680 H       1  UNL1        0.0000
      5  H         14.3490    9.4920    0.9960 H       1  UNL1        0.0000
@<TRIPOS>BOND
     1     1     2    1
     2     1     5    1
     3     1     4    1
     4     1     3    1
