@<TRIPOS>MOLECULE
UNL
 7 7 0 0 0
SMALL
GASTEIGER

@<TRIPOS>ATOM
      1  C         13.8420    8.5620    6.2970 C.3     1  UNL1        0.0000
      2  C         13.3610    8.5730    7.7220 C.3     1  UNL1        0.0000
      3  O         14.4890    9.3520    7.3030 O.3     1  UNL1        0.0000
      4  H         13.2640    9.0340    5.5300 H       1  UNL1        0.0000
      5  H         14.1480    7.8120    5.5980 H       1  UNL1        0.0000
      6  H         13.5010    7.7140    8.3430 H       1  UNL1        0.0000
      7  H         12.4330    8.7730    8.2140 H       1  UNL1        0.0000
@<TRIPOS>BOND
     1     1     4    1
     2     1     5    1
     3     1     3    1
     4     1     2    1
     5     2     3    1
     6     2     7    1
     7     2     6    1
