@<TRIPOS>MOLECULE
UNL
 18 18 0 0 0
SMALL
GASTEIGER

@<TRIPOS>ATOM
      1 CL         13.0590   15.2400    2.4030 Cl      1  UNL1        0.0000
      2  C         11.7650   14.4160    1.4400 C.3     1  UNL1        0.0000
      3  C         10.7690   13.7840    2.4260 C.3     1  UNL1        0.0000
      4 CL          9.2280   13.4500    1.5670 Cl      1  UNL1        0.0000
      5  C         11.3810   12.5460    3.1230 C.3     1  UNL1        0.0000
      6 CL         10.2530   11.8060    4.3050 Cl      1  UNL1        0.0000
      7  C         12.0120   11.5040    2.1740 C.3     1  UNL1        0.0000
      8 CL         10.7770   10.5530    1.2740 Cl      1  UNL1        0.0000
      9  C         13.0090   12.1960    1.2150 C.3     1  UNL1        0.0000
     10 CL         13.7670   10.9990    0.1030 Cl      1  UNL1        0.0000
     11  C         12.3580   13.3740    0.4610 C.3     1  UNL1        0.0000
     12 CL         13.5130   14.1810   -0.6630 Cl      1  UNL1        0.0000
     13  H         11.2540   15.1290    0.8280 H       1  UNL1        0.0000
     14  H         10.5480   14.4640    3.2210 H       1  UNL1        0.0000
     15  H         12.2160   12.9330    3.6700 H       1  UNL1        0.0000
     16  H         12.5480   10.7980    2.7720 H       1  UNL1        0.0000
     17  H         13.7950   12.6190    1.8050 H       1  UNL1        0.0000
     18  H         11.5630   12.9570   -0.1200 H       1  UNL1        0.0000
@<TRIPOS>BOND
     1     1     2    1
     2     2    11    1
     3     2    13    1
     4     2     3    1
     5     3     4    1
     6     3     5    1
     7     3    14    1
     8     5     7    1
     9     5    15    1
    10     5     6    1
    11     7     9    1
    12     7     8    1
    13     7    16    1
    14     9    10    1
    15     9    11    1
    16     9    17    1
    17    11    12    1
    18    11    18    1
