@<TRIPOS>MOLECULE
UNL
 38 38 0 0 0
SMALL
GASTEIGER

@<TRIPOS>ATOM
      1  C         10.8830   14.0900    2.1900 C.ar    1  UNL1        0.0000
      2  C         10.8150   12.8110    2.7810 C.ar    1  UNL1        0.0000
      3  C          9.9420   12.6100    3.8660 C.ar    1  UNL1        0.0000
      4  C          8.9730   13.5820    4.1660 C.ar    1  UNL1        0.0000
      5  C          8.9320   14.7830    3.4690 C.ar    1  UNL1        0.0000
      6  C          9.9190   15.0520    2.5260 C.ar    1  UNL1        0.0000
      7  H          8.2830   13.4030    4.9130 H       1  UNL1        0.0000
      8  H          8.1810   15.4660    3.6490 H       1  UNL1        0.0000
      9  H          9.9420   15.9760    2.0660 H       1  UNL1        0.0000
     10  C         12.0880   14.5570    1.3990 C.3     1  UNL1        0.0000
     11  H         12.6190   13.7070    1.0230 H       1  UNL1        0.0000
     12  H         11.7650   15.1650    0.5820 H       1  UNL1        0.0000
     13  C         13.0110   15.3720    2.3100 C.3     1  UNL1        0.0000
     14  H         12.4640   15.7030    3.1680 H       1  UNL1        0.0000
     15  H         13.3830   16.2200    1.7740 H       1  UNL1        0.0000
     16  H         13.8310   14.7600    2.6250 H       1  UNL1        0.0000
     17  N         11.3760   11.6660    2.1270 N.am    1  UNL1        0.0000
     18  C         12.6960   11.3050    2.3480 C.2     1  UNL1        0.0000
     19  O         13.4340   11.9150    3.1290 O.2     1  UNL1        0.0000
     20  C         13.2410   10.0890    1.6080 C.3     1  UNL1        0.0000
     21 CL         13.1940    8.6740    2.6790 Cl      1  UNL1        0.0000
     22  H         14.2520   10.2770    1.3100 H       1  UNL1        0.0000
     23  H         12.6420    9.9020    0.7420 H       1  UNL1        0.0000
     24  C         10.5260   11.0700    1.1000 C.3     1  UNL1        0.0000
     25  H          9.5010   11.2600    1.3380 H       1  UNL1        0.0000
     26  H         10.7120   10.0160    1.0700 H       1  UNL1        0.0000
     27  O         10.8180   11.6210   -0.1840 O.3     1  UNL1        0.0000
     28  C          9.7030   12.2210   -0.8280 C.3     1  UNL1        0.0000
     29  H          8.8290   12.0850   -0.2280 H       1  UNL1        0.0000
     30  H          9.5550   11.7640   -1.7840 H       1  UNL1        0.0000
     31  H          9.8880   13.2670   -0.9590 H       1  UNL1        0.0000
     32  C         10.1560   11.4890    4.8600 C.3     1  UNL1        0.0000
     33  H         11.1990   11.4050    5.0850 H       1  UNL1        0.0000
     34  H          9.8090   10.5670    4.4410 H       1  UNL1        0.0000
     35  C          9.3800   11.7940    6.1370 C.3     1  UNL1        0.0000
     36  H          9.7790   11.2150    6.9440 H       1  UNL1        0.0000
     37  H          8.3480   11.5470    5.9960 H       1  UNL1        0.0000
     38  H          9.4690   12.8350    6.3680 H       1  UNL1        0.0000
@<TRIPOS>BOND
     1     1    10    1
     2     1     6   ar
     3     1     2   ar
     4     2    17    1
     5     2     3   ar
     6     3     4   ar
     7     3    32    1
     8     4     5   ar
     9     4     7    1
    10     5     6   ar
    11     5     8    1
    12     6     9    1
    13    10    12    1
    14    10    11    1
    15    10    13    1
    16    13    15    1
    17    13    16    1
    18    13    14    1
    19    17    24    1
    20    17    18   am
    21    18    20    1
    22    18    19    2
    23    20    23    1
    24    20    22    1
    25    20    21    1
    26    24    27    1
    27    24    26    1
    28    24    25    1
    29    27    28    1
    30    28    30    1
    31    28    31    1
    32    28    29    1
    33    32    34    1
    34    32    33    1
    35    32    35    1
    36    35    37    1
    37    35    38    1
    38    35    36    1
