@<TRIPOS>MOLECULE
UNL
 32 32 0 0 0
SMALL
GASTEIGER

@<TRIPOS>ATOM
      1 CL          9.4000   10.9440    5.9820 Cl      1  UNL1       -0.0143
      2  C         10.0780   11.8090    4.6720 C.2     1  UNL1        0.3112
      3  N          9.5640   13.0020    4.4380 N.2     1  UNL1       -0.3145
      4  C         10.1030   13.6120    3.3960 C.cat   1  UNL1        0.3513
      5  N          9.6380   14.8560    3.0050 N.pl3   1  UNL1       -0.2868
      6  N         11.0730   13.0920    2.6520 N.2     1  UNL1       -0.0273
      7  C         11.5340   11.8990    3.0110 C.cat   1  UNL1        0.3812
      8  N         12.6210   11.3290    2.3730 N.pl3   1  UNL1       -0.2355
      9  N         11.0550   11.1960    4.0210 N.pl3   1  UNL1       -0.1697
     10  H          9.5750   15.0970    2.0530 H       1  UNL1        0.1515
     11  H         13.2380   10.7530    2.8790 H       1  UNL1        0.2447
     12  C          9.2460   15.8010    4.0480 C.3     1  UNL1        0.0199
     13  H          9.3500   15.3400    5.0080 H       1  UNL1        0.0493
     14  C         10.1400   17.0410    4.0220 C.3     1  UNL1       -0.0468
     15  H         10.2570   17.3760    3.0130 H       1  UNL1        0.0247
     16  H         11.0980   16.7980    4.4310 H       1  UNL1        0.0247
     17  H          9.6900   17.8170    4.6060 H       1  UNL1        0.0247
     18  C          7.7930   16.2050    3.7990 C.3     1  UNL1       -0.0468
     19  H          7.1410   15.5120    4.2880 H       1  UNL1        0.0247
     20  H          7.5960   16.2000    2.7480 H       1  UNL1        0.0247
     21  H          7.6250   17.1880    4.1890 H       1  UNL1        0.0247
     22  C         12.8540   11.5780    0.9630 C.3     1  UNL1        0.0635
     23  H         12.9910   12.6260    0.7900 H       1  UNL1        0.0663
     24  C         14.1040   10.7960    0.5520 C.3     1  UNL1       -0.0334
     25  H         14.2460   10.8790   -0.5050 H       1  UNL1        0.0261
     26  H         13.9810    9.7650    0.8160 H       1  UNL1        0.0261
     27  H         14.9580   11.1940    1.0600 H       1  UNL1        0.0261
     28  C         11.6570   11.1140    0.1340 C.3     1  UNL1       -0.0334
     29  H         11.7450   10.0650   -0.0610 H       1  UNL1        0.0261
     30  H         11.6350   11.6480   -0.7920 H       1  UNL1        0.0261
     31  H         10.7540   11.3010    0.6760 H       1  UNL1        0.0261
     32 H          11.3912   10.3037    4.2661 H       1  UNL1        0.2546
@<TRIPOS>BOND
     1     1     2    1
     2     2     9    1
     3     2     3    2
     4     3     4    2
     5     4     6    1
     6     4     5    1
     7     5    10    1
     8     5    12    1
     9     6     7    2
    10     7     8    1
    11     7     9    1
    12     8    22    1
    13     8    11    1
    14     9    32    1
    15    12    18    1
    16    12    14    1
    17    12    13    1
    18    14    15    1
    19    14    16    1
    20    14    17    1
    21    18    20    1
    22    18    21    1
    23    18    19    1
    24    22    28    1
    25    22    24    1
    26    22    23    1
    27    24    25    1
    28    24    26    1
    29    24    27    1
    30    28    30    1
    31    28    29    1
    32    28    31    1
