@<TRIPOS>MOLECULE
UNL
 28 29 0 0 0
SMALL
GASTEIGER

@<TRIPOS>ATOM
      1  C          9.2250   12.7520    2.6290 C.3     1  UNL1        0.0000
      2  H          8.4630   12.3670    1.9830 H       1  UNL1        0.0000
      3  C         10.5710   12.2720    2.0520 C.ar    1  UNL1        0.0000
      4  C         11.8080   12.7850    2.4790 C.ar    1  UNL1        0.0000
      5  C         13.0100   12.3500    1.9130 C.ar    1  UNL1        0.0000
      6  C         12.9960   11.3970    0.9040 C.ar    1  UNL1        0.0000
      7 CL         14.4730   10.8630    0.2040 Cl      1  UNL1        0.0000
      8  C         11.7870   10.8740    0.4570 C.ar    1  UNL1        0.0000
      9  C         10.5840   11.3030    1.0270 C.ar    1  UNL1        0.0000
     10  H         11.8300   13.4980    3.2250 H       1  UNL1        0.0000
     11  H         13.9070   12.7380    2.2450 H       1  UNL1        0.0000
     12  H         11.7780   10.1670   -0.2940 H       1  UNL1        0.0000
     13  H          9.6920   10.9060    0.6920 H       1  UNL1        0.0000
     14  C          8.8990   12.1040    3.9880 C.ar    1  UNL1        0.0000
     15  C          7.5530   11.8270    4.3040 C.ar    1  UNL1        0.0000
     16  C          7.2040   11.2510    5.5250 C.ar    1  UNL1        0.0000
     17  C          8.1980   10.9280    6.4460 C.ar    1  UNL1        0.0000
     18 CL          7.7700   10.2130    7.9480 Cl      1  UNL1        0.0000
     19  C          9.5370   11.1880    6.1520 C.ar    1  UNL1        0.0000
     20  C          9.8850   11.7770    4.9350 C.ar    1  UNL1        0.0000
     21  H          6.8150   12.0530    3.6200 H       1  UNL1        0.0000
     22  H          6.2130   11.0660    5.7450 H       1  UNL1        0.0000
     23  H         10.2710   10.9440    6.8350 H       1  UNL1        0.0000
     24  H         10.8750   11.9760    4.7280 H       1  UNL1        0.0000
     25 CL          9.6070   15.2780    3.8580 Cl      1  UNL1        0.0000
     26  C          8.9600   14.3020    2.4920 C.3     1  UNL1        0.0000
     27 CL          7.2070   14.7200    2.3200 Cl      1  UNL1        0.0000
     28 CL          9.7470   14.9250    0.9730 Cl      1  UNL1        0.0000
@<TRIPOS>BOND
     1     1     2    1
     2     1     3    1
     3     1    26    1
     4     1    14    1
     5     3     9   ar
     6     3     4   ar
     7     4     5   ar
     8     4    10    1
     9     5     6   ar
    10     5    11    1
    11     6     7    1
    12     6     8   ar
    13     8    12    1
    14     8     9   ar
    15     9    13    1
    16    14    15   ar
    17    14    20   ar
    18    15    21    1
    19    15    16   ar
    20    16    22    1
    21    16    17   ar
    22    17    19   ar
    23    17    18    1
    24    19    20   ar
    25    19    23    1
    26    20    24    1
    27    25    26    1
    28    26    28    1
    29    26    27    1
