@<TRIPOS>MOLECULE
UNL
 38 38 0 0 0
SMALL
GASTEIGER

@<TRIPOS>ATOM
      1  C         10.1020   12.2620    3.9890 C.ar    1  UNL1        0.0298
      2  C         10.0070   11.4340    5.1150 C.ar    1  UNL1       -0.0404
      3  C          9.2710   11.8040    6.2470 C.ar    1  UNL1       -0.0568
      4  C          8.6290   13.0420    6.3040 C.ar    1  UNL1       -0.0472
      5  C          8.7430   13.8980    5.2070 C.ar    1  UNL1       -0.0568
      6  C          9.4680   13.5110    4.0730 C.ar    1  UNL1       -0.0404
      7  H         10.4940   10.5230    5.1100 H       1  UNL1        0.0636
      8  H          9.2020   11.1560    7.0470 H       1  UNL1        0.0621
      9  H          8.2890   14.8250    5.2320 H       1  UNL1        0.0621
     10  H          9.5370   14.1620    3.2760 H       1  UNL1        0.0636
     11  C          7.8040   13.4370    7.5030 C.3     1  UNL1       -0.0272
     12  H          6.9950   14.0510    7.1670 H       1  UNL1        0.0313
     13  H          8.4630   13.9490    8.1730 H       1  UNL1        0.0313
     14  C          7.2190   12.2550    8.2800 C.3     1  UNL1       -0.0390
     15  H          8.0010   11.8040    8.8540 H       1  UNL1        0.0274
     16  H          6.8070   11.5730    7.5660 H       1  UNL1        0.0274
     17  C          6.0910   12.6660    9.2280 C.3     1  UNL1        0.0451
     18  H          5.4700   11.8160    9.4180 H       1  UNL1        0.0378
     19  H          5.5320   13.4510    8.7620 H       1  UNL1        0.0378
     20  C          6.6280   13.1830   10.5390 C.2     1  UNL1        0.3047
     21  O          6.8290   12.1930   11.4400 O.3     1  UNL1       -0.4806
     22  O          6.8730   14.3530   10.7930 O.2     1  UNL1       -0.2510
     23  N         10.7380   11.8650    2.8120 N.pl3   1  UNL1       -0.3276
     24  C         12.2090   11.7330    2.7620 C.3     1  UNL1        0.0257
     25  H         12.5660   12.1980    1.8670 H       1  UNL1        0.0475
     26  H         12.6100   12.2040    3.6350 H       1  UNL1        0.0475
     27 CL         13.8800    9.9780    1.4980 Cl      1  UNL1       -0.1238
     28  C         12.6640   10.2670    2.7700 C.3     1  UNL1        0.0383
     29  H         13.0920   10.0370    3.7240 H       1  UNL1        0.0445
     30  H         11.8150    9.6420    2.5840 H       1  UNL1        0.0445
     31  C         10.0460   12.1200    1.5280 C.3     1  UNL1        0.0257
     32  H          9.2480   12.8100    1.7100 H       1  UNL1        0.0475
     33  H          9.7030   11.1720    1.1720 H       1  UNL1        0.0475
     34  C         10.9450   12.7010    0.4320 C.3     1  UNL1        0.0383
     35 CL         11.4570   11.4730   -0.7540 Cl      1  UNL1       -0.1238
     36  H         11.8160   13.1220    0.8890 H       1  UNL1        0.0445
     37  H         10.3790   13.4430   -0.0940 H       1  UNL1        0.0445
     38 H           6.6307   11.3058   11.2132 H       1  UNL1        0.2951
@<TRIPOS>BOND
     1     1    23    1
     2     1     6   ar
     3     1     2   ar
     4     2     7    1
     5     2     3   ar
     6     3     4   ar
     7     3     8    1
     8     4     5   ar
     9     4    11    1
    10     5     6   ar
    11     5     9    1
    12     6    10    1
    13    11    12    1
    14    11    13    1
    15    11    14    1
    16    14    16    1
    17    14    15    1
    18    14    17    1
    19    17    19    1
    20    17    18    1
    21    17    20    1
    22    20    22    2
    23    20    21    1
    24    21    38    1
    25    23    31    1
    26    23    24    1
    27    24    25    1
    28    24    28    1
    29    24    26    1
    30    27    28    1
    31    28    30    1
    32    28    29    1
    33    31    34    1
    34    31    33    1
    35    31    32    1
    36    34    35    1
    37    34    37    1
    38    34    36    1
