@<TRIPOS>MOLECULE
UNL
 29 29 0 0 0
SMALL
GASTEIGER

@<TRIPOS>ATOM
      1  N         10.8900   12.0170    1.7470 N.3     1  UNL1        0.0000
      2  P          9.7140   12.6360    0.7910 P.3     1  UNL1        0.0000
      3  N          9.7030   11.9220   -0.6750 N.3     1  UNL1        0.0000
      4  C         10.8770   12.0070   -1.5200 C.3     1  UNL1        0.0000
      5  C         11.7050   13.2930   -1.4230 C.3     1  UNL1        0.0000
      6  C         11.5490   14.1550   -0.1780 C.3     1  UNL1        0.0000
      7  O         10.2540   14.1060    0.3900 O.3     1  UNL1        0.0000
      8  O          8.3530   12.7080    1.4230 O.2     1  UNL1        0.0000
      9  H          8.9310   12.3330   -1.1990 H       1  UNL1        0.0000
     10  H         10.5540   11.9050   -2.5350 H       1  UNL1        0.0000
     11  H         11.5270   11.2280   -1.1780 H       1  UNL1        0.0000
     12  H         11.4460   13.9000   -2.2640 H       1  UNL1        0.0000
     13  H         12.7180   12.9540   -1.3860 H       1  UNL1        0.0000
     14  H         11.7640   15.1700   -0.4410 H       1  UNL1        0.0000
     15  H         12.2270   13.7710    0.5550 H       1  UNL1        0.0000
     16  C         10.8970   12.5250    3.1320 C.3     1  UNL1        0.0000
     17  H         11.9130   12.6920    3.4220 H       1  UNL1        0.0000
     18  H         10.3110   13.4190    3.1330 H       1  UNL1        0.0000
     19 CL          9.4710   12.5030    5.4530 Cl      1  UNL1        0.0000
     20  C         10.2560   11.5790    4.1490 C.3     1  UNL1        0.0000
     21  H          9.5240   10.9740    3.6550 H       1  UNL1        0.0000
     22  H         11.0190   10.9610    4.5750 H       1  UNL1        0.0000
     23  C         11.3570   10.6360    1.6190 C.3     1  UNL1        0.0000
     24  H         11.1090   10.3020    0.6330 H       1  UNL1        0.0000
     25  H         10.8720   10.1050    2.4110 H       1  UNL1        0.0000
     26  C         12.8490   10.3820    1.8290 C.3     1  UNL1        0.0000
     27 CL         13.7410   10.7920    0.3400 Cl      1  UNL1        0.0000
     28  H         13.0050    9.3510    2.0650 H       1  UNL1        0.0000
     29  H         13.2020   10.9930    2.6330 H       1  UNL1        0.0000
@<TRIPOS>BOND
     1     1     2    1
     2     1    23    1
     3     1    16    1
     4     2     3    1
     5     2     7    1
     6     2     8    2
     7     3     4    1
     8     3     9    1
     9     4    10    1
    10     4     5    1
    11     4    11    1
    12     5    12    1
    13     5    13    1
    14     5     6    1
    15     6    14    1
    16     6     7    1
    17     6    15    1
    18    16    18    1
    19    16    17    1
    20    16    20    1
    21    19    20    1
    22    20    21    1
    23    20    22    1
    24    23    24    1
    25    23    26    1
    26    23    25    1
    27    26    27    1
    28    26    28    1
    29    26    29    1
