@<TRIPOS>MOLECULE
UNL
 21 20 0 0 0
SMALL
GASTEIGER

@<TRIPOS>ATOM
      1  O         10.3450   10.8460    1.7640 O.2     1  UNL1        0.0000
      2  C         11.0180   11.7800    2.2080 C.2     1  UNL1        0.0000
      3  N         12.1370   12.2620    1.5340 N.am    1  UNL1        0.0000
      4  N         10.6740   12.3740    3.3910 N.am    1  UNL1        0.0000
      5  H         11.2680   13.0690    3.7550 H       1  UNL1        0.0000
      6  C         12.5350   11.6010    0.2910 C.3     1  UNL1        0.0000
      7  H         12.6290   12.3480   -0.4700 H       1  UNL1        0.0000
      8  H         11.7770   10.8780    0.0740 H       1  UNL1        0.0000
      9  C         13.8560   10.8380    0.3760 C.3     1  UNL1        0.0000
     10 CL         13.9290    9.7940    1.8190 Cl      1  UNL1        0.0000
     11  H         14.6610   11.5420    0.4190 H       1  UNL1        0.0000
     12  H         13.9350   10.2130   -0.4890 H       1  UNL1        0.0000
     13  C          9.4770   12.0290    4.1360 C.3     1  UNL1        0.0000
     14  H          8.9110   11.3340    3.5520 H       1  UNL1        0.0000
     15  H          8.9610   12.9500    4.3150 H       1  UNL1        0.0000
     16  C          9.7290   11.4050    5.5070 C.3     1  UNL1        0.0000
     17 CL          8.9130   12.3190    6.8030 Cl      1  UNL1        0.0000
     18  H         10.7820   11.3970    5.6970 H       1  UNL1        0.0000
     19  H          9.3350   10.4100    5.5000 H       1  UNL1        0.0000
     20  N         12.9750   13.3170    1.9340 N.2     1  UNL1        0.0000
     21  O         13.1920   14.1940    1.0950 O.2     1  UNL1        0.0000
@<TRIPOS>BOND
     1     1     2    2
     2     2     3   am
     3     2     4   am
     4     3     6    1
     5     3    20    1
     6     4     5    1
     7     4    13    1
     8     6     7    1
     9     6     8    1
    10     6     9    1
    11     9    12    1
    12     9    11    1
    13     9    10    1
    14    13    14    1
    15    13    15    1
    16    13    16    1
    17    16    19    1
    18    16    18    1
    19    16    17    1
    20    20    21    2
