@<TRIPOS>MOLECULE
UNL
 15 15 0 0 0
SMALL
GASTEIGER

@<TRIPOS>ATOM
      1  C         10.0070   12.2150    3.8140 C.3     1  UNL1        0.1849
      2  C          9.6100   11.3920    5.0130 C.3     1  UNL1        0.0945
      3  O          8.7050   11.5920    3.9280 O.3     1  UNL1       -0.3557
      4  H         10.3770   13.2060    3.6530 H       1  UNL1        0.0750
      5  H         10.0730   10.5710    5.5200 H       1  UNL1        0.0626
      6  O         12.2460   10.7590    3.5570 O.3     1  UNL1       -0.3223
      7  P         11.1720   11.5180    2.6490 P.3     1  UNL1        0.3587
      8  O         12.0210   12.7560    2.1050 O.3     1  UNL1       -0.3223
      9  O         10.4030   10.7330    1.6520 O.2     1  UNL1       -0.2560
     10  C          9.2220   12.0410    6.2900 C.3     1  UNL1       -0.0356
     11  H          9.0530   13.0840    6.1230 H       1  UNL1        0.0255
     12  H         10.0070   11.9160    7.0070 H       1  UNL1        0.0255
     13  H          8.3240   11.5900    6.6610 H       1  UNL1        0.0255
     14 H          12.9183   10.3506    2.9895 H       1  UNL1        0.2198
     15 H          12.6765   12.4413    1.4630 H       1  UNL1        0.2198
@<TRIPOS>BOND
     1     1     7    1
     2     1     4    1
     3     1     3    1
     4     1     2    1
     5     2     3    1
     6     2     5    1
     7     2    10    1
     8     6     7    1
     9     6    14    1
    10     7     9    2
    11     7     8    1
    12     8    15    1
    13    10    11    1
    14    10    13    1
    15    10    12    1
