@<TRIPOS>MOLECULE
UNL
 21 22 0 0 0
SMALL
GASTEIGER

@<TRIPOS>ATOM
      1  O          9.7180   12.0750    0.3930 O.2     1  UNL1        0.0000
      2  C         10.8540   11.7600    0.0590 C.2     1  UNL1        0.0000
      3  C         11.3600   12.0190   -1.3160 C.2     1  UNL1        0.0000
      4  C         12.6090   11.6670   -1.6530 C.2     1  UNL1        0.0000
      5  C         13.5450   11.0330   -0.7060 C.2     1  UNL1        0.0000
      6  C         13.0610   10.7610    0.6580 C.ar    1  UNL1        0.0000
      7  C         13.9120   10.1480    1.5870 C.ar    1  UNL1        0.0000
      8  C         13.4530    9.8700    2.8760 C.ar    1  UNL1        0.0000
      9  C         12.1500   10.2070    3.2410 C.ar    1  UNL1        0.0000
     10  C         11.3040   10.8260    2.3190 C.ar    1  UNL1        0.0000
     11  C         11.7610   11.1040    1.0230 C.ar    1  UNL1        0.0000
     12  O         14.6820   10.7490   -1.0590 O.2     1  UNL1        0.0000
     13  H         12.9290   11.8490   -2.6170 H       1  UNL1        0.0000
     14  H         14.8780    9.9000    1.3170 H       1  UNL1        0.0000
     15  H         14.0800    9.4170    3.5590 H       1  UNL1        0.0000
     16  H         11.8110    9.9970    4.1920 H       1  UNL1        0.0000
     17  H         10.3420   11.0770    2.5910 H       1  UNL1        0.0000
     18  C         10.4400   12.6840   -2.2930 C.3     1  UNL1        0.0000
     19  H         10.2050   13.6690   -1.9470 H       1  UNL1        0.0000
     20  H          9.5400   12.1130   -2.3800 H       1  UNL1        0.0000
     21  H         10.9180   12.7460   -3.2480 H       1  UNL1        0.0000
@<TRIPOS>BOND
     1     1     2    2
     2     2     3    1
     3     2    11    1
     4     3    18    1
     5     3     4    2
     6     4    13    1
     7     4     5    1
     8     5    12    2
     9     5     6    1
    10     6    11   ar
    11     6     7   ar
    12     7    14    1
    13     7     8   ar
    14     8     9   ar
    15     8    15    1
    16     9    10   ar
    17     9    16    1
    18    10    11   ar
    19    10    17    1
    20    18    21    1
    21    18    20    1
    22    18    19    1
