@<TRIPOS>MOLECULE
UNL
 18 18 0 0 0
SMALL
GASTEIGER

@<TRIPOS>ATOM
      1  O          7.8170   14.0430    6.9600 O.2     1  UNL1        0.0000
      2  C          8.4840   13.3240    6.2300 C.2     1  UNL1        0.0000
      3  C          8.8760   13.7490    4.8770 C.2     1  UNL1        0.0000
      4  C          9.6970   13.0130    4.1190 C.2     1  UNL1        0.0000
      5  C          8.9100   11.9810    6.6580 C.2     1  UNL1        0.0000
      6  C          9.7290   11.2440    5.9020 C.2     1  UNL1        0.0000
      7  C         10.2820   11.7320    4.6070 C.2     1  UNL1        0.0000
      8  N         11.2010   10.9900    4.0760 N.am    1  UNL1        0.0000
      9  H          8.5080   14.6380    4.5030 H       1  UNL1        0.0000
     10  H          9.9300   13.3420    3.1700 H       1  UNL1        0.0000
     11  H          8.5700   11.6030    7.5570 H       1  UNL1        0.0000
     12  H          9.9890   10.2990    6.2280 H       1  UNL1        0.0000
     13  C         11.8540   11.3140    2.9130 C.2     1  UNL1        0.0000
     14  O         12.8930   11.9610    2.8070 O.2     1  UNL1        0.0000
     15  C         11.1970   10.7300    1.6910 C.3     1  UNL1        0.0000
     16  H         11.1620   11.4690    0.9170 H       1  UNL1        0.0000
     17  H         10.2010   10.4230    1.9340 H       1  UNL1        0.0000
     18  H         11.7580    9.8850    1.3520 H       1  UNL1        0.0000
@<TRIPOS>BOND
     1     1     2    2
     2     2     3    1
     3     2     5    1
     4     3     4    2
     5     3     9    1
     6     4    10    1
     7     4     7    1
     8     5     6    2
     9     5    11    1
    10     6     7    1
    11     6    12    1
    12     7     8    2
    13     8    13    1
    14    13    15    1
    15    13    14    2
    16    15    16    1
    17    15    18    1
    18    15    17    1
