@<TRIPOS>MOLECULE
UNL
 69 73 0 0 0
SMALL
GASTEIGER

@<TRIPOS>ATOM
      1  C          8.9490   12.4130    6.2920 C.3     1  UNL1        0.0000
      2  C          7.7000   13.0060    5.6440 C.3     1  UNL1        0.0000
      3  C          8.0170   13.5270    4.2480 C.3     1  UNL1        0.0000
      4  C          8.6660   12.4760    3.3200 C.3     1  UNL1        0.0000
      5  C          9.7490   11.7090    4.0540 C.3     1  UNL1        0.0000
      6  C         10.7290   10.9290    3.2340 C.3     1  UNL1        0.0000
      7  C         10.5590   10.9180    1.7520 C.3     1  UNL1        0.0000
      8  C         10.1640   12.2830    1.1600 C.3     1  UNL1        0.0000
      9  C          9.2190   13.1640    2.0420 C.3     1  UNL1        0.0000
     10  C          8.1130   13.8650    1.2300 C.3     1  UNL1        0.0000
     11  C          8.7080   14.5490    0.0090 C.3     1  UNL1        0.0000
     12  C          9.2640   13.5150   -0.9550 C.3     1  UNL1        0.0000
     13  C          9.7150   12.1830   -0.3150 C.3     1  UNL1        0.0000
     14  C         10.7890   11.6350   -1.2640 C.3     1  UNL1        0.0000
     15  C         10.9220   12.6240   -2.4190 C.3     1  UNL1        0.0000
     16  C         10.3750   13.9710   -1.9260 C.3     1  UNL1        0.0000
     17  O         11.0920   12.1770    3.8440 O.3     1  UNL1        0.0000
     18  C          9.4590   11.2490    5.4500 C.3     1  UNL1        0.0000
     19  H          9.7090   13.1620    6.3530 H       1  UNL1        0.0000
     20  H          7.3400   13.8120    6.2470 H       1  UNL1        0.0000
     21  H          6.9560   12.2410    5.5660 H       1  UNL1        0.0000
     22  H          8.6890   14.3540    4.3420 H       1  UNL1        0.0000
     23  H          7.0860   13.8040    3.8000 H       1  UNL1        0.0000
     24  H          7.9220   11.7670    3.0210 H       1  UNL1        0.0000
     25  H         11.1050    9.9270    3.2480 H       1  UNL1        0.0000
     26  H          9.7950   10.2110    1.5070 H       1  UNL1        0.0000
     27  H         11.5080   10.6600    1.3320 H       1  UNL1        0.0000
     28  H         11.0790   12.8390    1.1690 H       1  UNL1        0.0000
     29  H          9.8700   13.9290    2.4120 H       1  UNL1        0.0000
     30  H          7.6320   14.5970    1.8460 H       1  UNL1        0.0000
     31  H          7.4010   13.1340    0.9090 H       1  UNL1        0.0000
     32  H          9.4970   15.2020    0.3190 H       1  UNL1        0.0000
     33  H          7.9410   15.1070   -0.4860 H       1  UNL1        0.0000
     34  H          8.3780   13.3590   -1.5330 H       1  UNL1        0.0000
     35  H          8.8880   11.5110   -0.2230 H       1  UNL1        0.0000
     36  H         10.4950   10.6760   -1.6350 H       1  UNL1        0.0000
     37  H         11.7230   11.5210   -0.7530 H       1  UNL1        0.0000
     38  H         10.3540   12.2830   -3.2600 H       1  UNL1        0.0000
     39  H         11.9420   12.7170   -2.7270 H       1  UNL1        0.0000
     40  H          9.9720   14.6030   -2.6910 H       1  UNL1        0.0000
     41  H          8.7150   10.4800    5.4220 H       1  UNL1        0.0000
     42  H         10.3580   10.8700    5.8880 H       1  UNL1        0.0000
     43  O          8.6280   11.9530    7.6010 O.3     1  UNL1        0.0000
     44  H          8.6090   12.7060    8.2120 H       1  UNL1        0.0000
     45  C         11.4370   15.0300   -1.4720 C.3     1  UNL1        0.0000
     46  H         11.1580   15.3040   -0.4750 H       1  UNL1        0.0000
     47  C         11.3830   16.2510   -2.4040 C.3     1  UNL1        0.0000
     48  H         10.7630   17.0060   -1.9670 H       1  UNL1        0.0000
     49  H         10.9760   15.9590   -3.3500 H       1  UNL1        0.0000
     50  H         12.3700   16.6370   -2.5440 H       1  UNL1        0.0000
     51  C         12.8790   14.5110   -1.3230 C.3     1  UNL1        0.0000
     52  H         13.5340   15.3440   -1.4710 H       1  UNL1        0.0000
     53  H         12.9560   13.7260   -2.0470 H       1  UNL1        0.0000
     54  C         13.2750   13.8490    0.0050 C.3     1  UNL1        0.0000
     55  H         12.4490   13.2560    0.3380 H       1  UNL1        0.0000
     56  H         13.5230   14.6490    0.6720 H       1  UNL1        0.0000
     57  C         14.5130   12.9460   -0.0590 C.3     1  UNL1        0.0000
     58  H         14.9900   12.9780    0.8980 H       1  UNL1        0.0000
     59  H         15.1100   13.3320   -0.8590 H       1  UNL1        0.0000
     60  C         14.2540   11.4630   -0.4100 C.3     1  UNL1        0.0000
     61  H         13.4360   11.4440   -1.0990 H       1  UNL1        0.0000
     62  C         15.4410   10.7980   -1.1080 C.3     1  UNL1        0.0000
     63  H         16.0870   10.3610   -0.3750 H       1  UNL1        0.0000
     64  H         15.9830   11.5330   -1.6670 H       1  UNL1        0.0000
     65  H         15.0850   10.0370   -1.7700 H       1  UNL1        0.0000
     66  C         13.9010   10.6850    0.8610 C.3     1  UNL1        0.0000
     67  H         12.8770   10.3780    0.8190 H       1  UNL1        0.0000
     68  H         14.0520   11.3110    1.7150 H       1  UNL1        0.0000
     69  H         14.5290    9.8220    0.9360 H       1  UNL1        0.0000
@<TRIPOS>BOND
     1     1    18    1
     2     1     2    1
     3     1    19    1
     4     1    43    1
     5     2     3    1
     6     2    21    1
     7     2    20    1
     8     3     4    1
     9     3    23    1
    10     3    22    1
    11     4     9    1
    12     4    24    1
    13     4     5    1
    14     5     6    1
    15     5    17    1
    16     5    18    1
    17     6     7    1
    18     6    25    1
    19     6    17    1
    20     7     8    1
    21     7    27    1
    22     7    26    1
    23     8    13    1
    24     8    28    1
    25     8     9    1
    26     9    10    1
    27     9    29    1
    28    10    11    1
    29    10    31    1
    30    10    30    1
    31    11    12    1
    32    11    33    1
    33    11    32    1
    34    12    16    1
    35    12    34    1
    36    12    13    1
    37    13    14    1
    38    13    35    1
    39    14    15    1
    40    14    36    1
    41    14    37    1
    42    15    38    1
    43    15    39    1
    44    15    16    1
    45    16    40    1
    46    16    45    1
    47    18    41    1
    48    18    42    1
    49    43    44    1
    50    45    47    1
    51    45    51    1
    52    45    46    1
    53    47    49    1
    54    47    50    1
    55    47    48    1
    56    51    53    1
    57    51    52    1
    58    51    54    1
    59    54    57    1
    60    54    55    1
    61    54    56    1
    62    57    59    1
    63    57    60    1
    64    57    58    1
    65    60    62    1
    66    60    61    1
    67    60    66    1
    68    62    65    1
    69    62    64    1
    70    62    63    1
    71    66    67    1
    72    66    69    1
    73    66    68    1
