@<TRIPOS>MOLECULE
UNL
 21 22 0 0 0
SMALL
GASTEIGER

@<TRIPOS>ATOM
      1  N         10.6200   11.5150    3.5740 N.ar    1  UNL1        0.0000
      2  C         11.7520   10.9630    2.9910 C.ar    1  UNL1        0.0000
      3  N         12.7000   10.2000    3.5750 N.ar    1  UNL1        0.0000
      4  C         13.6520    9.8380    2.6970 C.ar    1  UNL1        0.0000
      5  N         13.7430   10.1490    1.3890 N.ar    1  UNL1        0.0000
      6  C         12.7660   10.9040    0.8390 C.ar    1  UNL1        0.0000
      7  C         11.7160   11.3500    1.6610 C.ar    1  UNL1        0.0000
      8  N         10.6140   12.1300    1.3990 N.ar    1  UNL1        0.0000
      9  C          9.9800   12.1950    2.5500 C.ar    1  UNL1        0.0000
     10  H         14.4090    9.2450    3.0720 H       1  UNL1        0.0000
     11  H          9.0910   12.7040    2.6770 H       1  UNL1        0.0000
     12  C          9.2980   12.2640    5.4930 C.2     1  UNL1        0.0000
     13  C         10.1690   11.4370    4.8970 C.2     1  UNL1        0.0000
     14  H          8.8890   13.0490    4.9630 H       1  UNL1        0.0000
     15  H         10.5450   10.6660    5.4690 H       1  UNL1        0.0000
     16  O          8.4750   12.9450    7.6220 O.2     1  UNL1        0.0000
     17  C          8.9200   12.0560    6.9080 C.2     1  UNL1        0.0000
     18  H          9.0370   11.1140    7.3140 H       1  UNL1        0.0000
     19  N         12.8600   11.2090   -0.5110 N.pl3   1  UNL1        0.0000
     20  H         13.7210   11.1090   -0.9800 H       1  UNL1        0.0000
     21  H         12.0670   11.5260   -1.0010 H       1  UNL1        0.0000
@<TRIPOS>BOND
     1     1     9   ar
     2     1     2   ar
     3     1    13    1
     4     2     7   ar
     5     2     3   ar
     6     3     4   ar
     7     4     5   ar
     8     4    10    1
     9     5     6   ar
    10     6    19    1
    11     6     7   ar
    12     7     8   ar
    13     8     9   ar
    14     9    11    1
    15    12    13    2
    16    12    14    1
    17    12    17    1
    18    13    15    1
    19    16    17    2
    20    17    18    1
    21    19    21    1
    22    19    20    1
