@<TRIPOS>MOLECULE
UNL
 53 52 0 0 0
SMALL
GASTEIGER

@<TRIPOS>ATOM
      1  C         10.3600   11.5950    3.3770 C.3     1  UNL1        0.0736
      2  H          9.7910   10.9100    2.7830 H       1  UNL1        0.0638
      3  C         11.8200   11.3590    3.1120 C.2     1  UNL1       -0.0559
      4  C         12.2460   10.4630    2.2110 C.2     1  UNL1       -0.0636
      5  H         12.5180   11.9060    3.6390 H       1  UNL1        0.0597
      6  H         11.5260    9.9220    1.7060 H       1  UNL1        0.0615
      7  C         13.6180   10.1900    1.8880 C.2     1  UNL1       -0.0659
      8  C         14.1700   10.5130    0.7050 C.2     1  UNL1       -0.0840
      9  H         14.2070    9.7240    2.5950 H       1  UNL1        0.0614
     10  H         15.1730   10.3040    0.5830 H       1  UNL1        0.0572
     11  C         13.4570   11.1530   -0.4560 C.3     1  UNL1       -0.0345
     12  H         12.4930   10.7000   -0.5640 H       1  UNL1        0.0307
     13  H         14.0500   11.0050   -1.3340 H       1  UNL1        0.0307
     14  C         13.2760   12.6570   -0.2510 C.3     1  UNL1       -0.0496
     15  H         14.1130   13.1740   -0.6720 H       1  UNL1        0.0268
     16  H         13.2100   12.8600    0.7980 H       1  UNL1        0.0268
     17  C         11.9950   13.1370   -0.9300 C.3     1  UNL1       -0.0530
     18  H         12.2550   13.7460   -1.7700 H       1  UNL1        0.0265
     19  H         11.4270   13.6940   -0.2140 H       1  UNL1        0.0265
     20  C         11.1400   11.9690   -1.4120 C.3     1  UNL1       -0.0559
     21  H         11.7410   11.0850   -1.4440 H       1  UNL1        0.0263
     22  H         10.7630   12.2010   -2.3860 H       1  UNL1        0.0263
     23  C          9.9630   11.7380   -0.4780 C.3     1  UNL1       -0.0653
     24  H         10.0550   10.7750   -0.0210 H       1  UNL1        0.0230
     25  H          9.0510   11.7820   -1.0370 H       1  UNL1        0.0230
     26  H          9.9540   12.4930    0.2800 H       1  UNL1        0.0230
     27  C          9.9920   11.3270    4.8400 C.3     1  UNL1       -0.0232
     28  H          9.2530   10.5540    4.8760 H       1  UNL1        0.0293
     29  H         10.8820   11.0350    5.3580 H       1  UNL1        0.0293
     30  C          9.4350   12.5720    5.5230 C.3     1  UNL1       -0.0504
     31  H         10.2170   13.2940    5.6320 H       1  UNL1        0.0266
     32  H          8.6450   12.9710    4.9230 H       1  UNL1        0.0266
     33  C          8.8800   12.2200    6.8990 C.3     1  UNL1       -0.0530
     34  H          8.3380   11.3010    6.8380 H       1  UNL1        0.0265
     35  H          9.6940   12.1210    7.5870 H       1  UNL1        0.0265
     36  C          7.9480   13.3210    7.3890 C.3     1  UNL1       -0.0530
     37  H          7.2190   12.8950    8.0470 H       1  UNL1        0.0265
     38  H          8.5320   14.0570    7.9000 H       1  UNL1        0.0265
     39  C          7.2320   13.9940    6.2220 C.3     1  UNL1       -0.0526
     40  H          7.1020   15.0330    6.4410 H       1  UNL1        0.0265
     41  H          7.8230   13.8750    5.3380 H       1  UNL1        0.0265
     42  C          5.8660   13.3520    5.9960 C.3     1  UNL1       -0.0430
     43  H          5.8810   12.3560    6.3850 H       1  UNL1        0.0270
     44  H          5.1290   13.9440    6.4970 H       1  UNL1        0.0270
     45  C          5.5150   13.3010    4.5120 C.3     1  UNL1        0.0448
     46  H          4.4970   12.9850    4.4070 H       1  UNL1        0.0377
     47  H          5.6540   14.2790    4.1010 H       1  UNL1        0.0377
     48  O          6.3930   11.0970    4.3040 O.3     1  UNL1       -0.4806
     49  C          6.4100   12.3390    3.7640 C.2     1  UNL1        0.3047
     50  O          7.0800   12.6120    2.7870 O.2     1  UNL1       -0.2510
     51  O         10.0460   12.9370    3.0240 O.3     1  UNL1       -0.3878
     52  H         10.7920   13.3280    2.5430 H       1  UNL1        0.2102
     53 H           5.8649   10.9210    5.0577 H       1  UNL1        0.2951
@<TRIPOS>BOND
     1     1     2    1
     2     1    51    1
     3     1     3    1
     4     1    27    1
     5     3     4    2
     6     3     5    1
     7     4     6    1
     8     4     7    1
     9     7     8    2
    10     7     9    1
    11     8    11    1
    12     8    10    1
    13    11    13    1
    14    11    12    1
    15    11    14    1
    16    14    17    1
    17    14    15    1
    18    14    16    1
    19    17    18    1
    20    17    20    1
    21    17    19    1
    22    20    22    1
    23    20    21    1
    24    20    23    1
    25    23    25    1
    26    23    24    1
    27    23    26    1
    28    27    28    1
    29    27    29    1
    30    27    30    1
    31    30    32    1
    32    30    31    1
    33    30    33    1
    34    33    34    1
    35    33    36    1
    36    33    35    1
    37    36    39    1
    38    36    38    1
    39    36    37    1
    40    39    41    1
    41    39    42    1
    42    39    40    1
    43    42    45    1
    44    42    43    1
    45    42    44    1
    46    45    49    1
    47    45    47    1
    48    45    46    1
    49    48    49    1
    50    48    53    1
    51    49    50    2
    52    51    52    1
