@<TRIPOS>MOLECULE
UNL
 18 19 0 0 0
SMALL
GASTEIGER

@<TRIPOS>ATOM
      1  O          8.4920   12.9900    1.1820 O.2     1  UNL1        0.0000
      2  C          9.4140   12.4250    1.7540 C.2     1  UNL1        0.0000
      3  C          9.4610   12.3030    3.2810 C.2     1  UNL1        0.0000
      4  C         10.6150   11.5990    3.8850 C.2     1  UNL1        0.0000
      5  C         11.5600   11.1020    3.0860 C.2     1  UNL1        0.0000
      6  N         12.6890   10.4240    3.4190 N.pl3   1  UNL1        0.0000
      7  C         13.5180   10.0460    2.2930 C.3     1  UNL1        0.0000
      8  C         12.7330   10.5560    1.0690 C.3     1  UNL1        0.0000
      9  C         11.5110   11.2250    1.6480 C.2     1  UNL1        0.0000
     10  C         10.5290   11.8350    0.9800 C.2     1  UNL1        0.0000
     11  O          8.5770   12.7690    3.9870 O.2     1  UNL1        0.0000
     12  H         10.6870   11.4950    4.9100 H       1  UNL1        0.0000
     13  H         12.9260   10.2060    4.3490 H       1  UNL1        0.0000
     14  H         13.6420    8.9840    2.2500 H       1  UNL1        0.0000
     15  H         14.5050   10.4550    2.3510 H       1  UNL1        0.0000
     16  H         12.4530    9.7420    0.4340 H       1  UNL1        0.0000
     17  H         13.3130   11.2250    0.4670 H       1  UNL1        0.0000
     18  H         10.5460   11.8910   -0.0500 H       1  UNL1        0.0000
@<TRIPOS>BOND
     1     1     2    2
     2     2    10    1
     3     2     3    1
     4     3     4    1
     5     3    11    2
     6     4     5    2
     7     4    12    1
     8     5     9    1
     9     5     6    1
    10     6     7    1
    11     6    13    1
    12     7     8    1
    13     7    14    1
    14     7    15    1
    15     8    16    1
    16     8    17    1
    17     8     9    1
    18     9    10    2
    19    10    18    1
