@<TRIPOS>MOLECULE
UNL
 114 118 0 0 0
SMALL
GASTEIGER

@<TRIPOS>ATOM
      1  C          8.4210   14.8000   -0.3250 C.3     1  UNL1        0.0000
      2  C          7.3100   14.3340    0.6480 C.3     1  UNL1        0.0000
      3  C          7.2840   15.2470    1.9350 C.3     1  UNL1        0.0000
      4  C          7.3780   16.8180    1.6360 C.3     1  UNL1        0.0000
      5  C          8.8000   17.3680    2.1550 C.3     1  UNL1        0.0000
      6  C          9.1930   17.2480    3.6760 C.3     1  UNL1        0.0000
      7  C         10.3480   16.2680    4.0330 C.3     1  UNL1        0.0000
      8  C         10.4050   14.8590    3.4830 C.2     1  UNL1        0.0000
      9  C          9.6380   13.8010    3.8170 C.2     1  UNL1        0.0000
     10  C          8.3800   13.8400    4.6430 C.3     1  UNL1        0.0000
     11  O          8.4900   12.8400    5.6820 O.3     1  UNL1        0.0000
     12  C          7.1180   13.5430    3.8630 C.3     1  UNL1        0.0000
     13  C          6.4550   12.4210    4.6110 C.3     1  UNL1        0.0000
     14  C          7.3520   12.0830    5.7390 C.2     1  UNL1        0.0000
     15  O          7.0990   11.2530    6.5930 O.2     1  UNL1        0.0000
     16  O          7.0310   12.2140    3.3110 O.3     1  UNL1        0.0000
     17  C          6.3630   14.6010    3.0550 C.3     1  UNL1        0.0000
     18  C          7.2470   17.0550    0.0640 C.3     1  UNL1        0.0000
     19  C          8.2060   16.2330   -0.7980 C.3     1  UNL1        0.0000
     20  H          9.3520   14.8020    0.2030 H       1  UNL1        0.0000
     21  H          7.5570   13.3430    0.9680 H       1  UNL1        0.0000
     22  H          8.2070   15.2550    2.4770 H       1  UNL1        0.0000
     23  H          9.4820   16.7040    1.6660 H       1  UNL1        0.0000
     24  H          9.5510   18.2430    3.8340 H       1  UNL1        0.0000
     25  H         10.3410   16.1720    5.0990 H       1  UNL1        0.0000
     26  H         11.1890   16.7290    3.5590 H       1  UNL1        0.0000
     27  H          9.9410   12.8760    3.4730 H       1  UNL1        0.0000
     28  H          8.2960   14.8370    5.0210 H       1  UNL1        0.0000
     29  H          5.5640   14.1780    2.4820 H       1  UNL1        0.0000
     30  H          6.2550   16.7240   -0.1580 H       1  UNL1        0.0000
     31  H          7.8140   16.2000   -1.7930 H       1  UNL1        0.0000
     32  H          9.1580   16.7170   -0.7340 H       1  UNL1        0.0000
     33  C          6.2370   17.6670    2.2360 C.3     1  UNL1        0.0000
     34  H          6.1640   18.5940    1.7060 H       1  UNL1        0.0000
     35  H          6.4420   17.8610    3.2680 H       1  UNL1        0.0000
     36  H          5.3130   17.1340    2.1520 H       1  UNL1        0.0000
     37  C          4.9800   12.2470    4.6770 C.3     1  UNL1        0.0000
     38  H          4.6960   11.9870    5.6760 H       1  UNL1        0.0000
     39  H          4.6830   11.4670    4.0080 H       1  UNL1        0.0000
     40  H          4.5010   13.1610    4.3960 H       1  UNL1        0.0000
     41  C          5.9370   14.1690   -0.0250 C.3     1  UNL1        0.0000
     42  H          5.5480   15.1320   -0.2840 H       1  UNL1        0.0000
     43  H          5.2640   13.6840    0.6510 H       1  UNL1        0.0000
     44  H          6.0410   13.5770   -0.9100 H       1  UNL1        0.0000
     45  C         11.4150   14.6040    2.4100 C.2     1  UNL1        0.0000
     46  N         11.2640   15.1000    1.2280 N.2     1  UNL1        0.0000
     47  H         12.2430   14.0250    2.6170 H       1  UNL1        0.0000
     48  O         12.3140   14.6910    0.3890 O.2     1  UNL1        0.0000
     49  C         13.5620   14.8450    1.0900 C.3     1  UNL1        0.0000
     50  H         14.2600   14.1240    0.7190 H       1  UNL1        0.0000
     51  H         13.3800   14.6970    2.1340 H       1  UNL1        0.0000
     52  C         14.1220   16.1930    0.9050 C.1     1  UNL1        0.0000
     53  C         14.5760   17.2900    0.7090 C.1     1  UNL1        0.0000
     54  H         14.9500   18.1960    0.5470 H       1  UNL1        0.0000
     55  O          7.4240   18.4540   -0.2780 O.3     1  UNL1        0.0000
     56  C          6.6910   18.9540   -1.3100 C.2     1  UNL1        0.0000
     57  O          7.0820   19.7790   -2.1240 O.2     1  UNL1        0.0000
     58  C          5.3060   18.3820   -1.2950 C.3     1  UNL1        0.0000
     59  H          5.0060   18.1460   -2.2940 H       1  UNL1        0.0000
     60  H          4.6280   19.0990   -0.8790 H       1  UNL1        0.0000
     61  H          5.2930   17.4940   -0.6990 H       1  UNL1        0.0000
     62  O          5.7840   15.5180    3.9960 O.3     1  UNL1        0.0000
     63  C          4.4170   15.5160    4.1010 C.2     1  UNL1        0.0000
     64  O          3.7830   15.8780    5.0790 O.2     1  UNL1        0.0000
     65  C          3.7750   15.0550    2.8260 C.3     1  UNL1        0.0000
     66  H          3.1300   15.8230    2.4530 H       1  UNL1        0.0000
     67  H          3.2050   14.1700    3.0140 H       1  UNL1        0.0000
     68  H          4.5330   14.8440    2.1000 H       1  UNL1        0.0000
     69  O          8.0900   16.9650    4.5700 O.3     1  UNL1        0.0000
     70  C          7.8450   17.8950    5.5450 C.2     1  UNL1        0.0000
     71  O          8.3630   19.0020    5.6040 O.2     1  UNL1        0.0000
     72  C          6.9050   17.3650    6.6030 C.3     1  UNL1        0.0000
     73  H          5.9370   17.2360    6.1650 H       1  UNL1        0.0000
     74  H          6.8890   18.0750    7.4020 H       1  UNL1        0.0000
     75  C          7.3580   16.0280    7.1850 C.3     1  UNL1        0.0000
     76  H          7.9100   16.2180    8.0820 H       1  UNL1        0.0000
     77  H          7.9530   15.5460    6.4370 H       1  UNL1        0.0000
     78  C          6.2090   15.0880    7.5160 C.3     1  UNL1        0.0000
     79  H          6.2670   14.2200    6.8910 H       1  UNL1        0.0000
     80  H          5.2780   15.5890    7.3440 H       1  UNL1        0.0000
     81  H          6.2730   14.7940    8.5420 H       1  UNL1        0.0000
     82  O          8.8990   18.7870    1.8070 O.3     1  UNL1        0.0000
     83  C         10.1620   19.2910    1.7010 C.2     1  UNL1        0.0000
     84  O         10.5950   20.2380    2.3350 O.2     1  UNL1        0.0000
     85  C         10.9550   18.5560    0.6670 C.3     1  UNL1        0.0000
     86  H         10.5030   18.6900   -0.2920 H       1  UNL1        0.0000
     87  H         10.9770   17.5140    0.9090 H       1  UNL1        0.0000
     88  H         11.9550   18.9380    0.6460 H       1  UNL1        0.0000
     89  O          8.5240   13.8690   -1.4330 O.3     1  UNL1        0.0000
     90  O         10.5800   13.9110   -2.4610 O.2     1  UNL1        0.0000
     91  C          9.7730   13.3820   -1.7070 C.2     1  UNL1        0.0000
     92  C         10.0070   12.0600   -1.0040 C.3     1  UNL1        0.0000
     93  H          9.3850   11.3120   -1.4500 H       1  UNL1        0.0000
     94  H          9.7680   12.1800    0.0320 H       1  UNL1        0.0000
     95  C         11.4730   11.6260   -1.1190 C.3     1  UNL1        0.0000
     96  H         12.0760   12.4890   -1.3030 H       1  UNL1        0.0000
     97  H         11.5500   10.9240   -1.9230 H       1  UNL1        0.0000
     98  N         11.9410   10.9700    0.1060 N.4     1  UNL1        0.0000
     99  C         13.3490   11.2040    0.4090 C.3     1  UNL1        0.0000
    100  C         13.8310   10.1930    1.4570 C.3     1  UNL1        0.0000
    101  C         12.7060    9.6730    2.3570 C.3     1  UNL1        0.0000
    102  C         11.6540   10.7510    2.5850 C.3     1  UNL1        0.0000
    103  C         11.0900   11.2910    1.2610 C.3     1  UNL1        0.0000
    104  H         11.8580    9.9710   -0.0850 H       1  UNL1        0.0000
    105  H         13.4710   12.1970    0.7890 H       1  UNL1        0.0000
    106  H         13.9260   11.0870   -0.4850 H       1  UNL1        0.0000
    107  H         14.5670   10.6660    2.0730 H       1  UNL1        0.0000
    108  H         14.2300    9.3520    0.9290 H       1  UNL1        0.0000
    109  H         13.1190    9.3810    3.3000 H       1  UNL1        0.0000
    110  H         12.2410    8.8380    1.8770 H       1  UNL1        0.0000
    111  H         12.0990   11.5600    3.1260 H       1  UNL1        0.0000
    112  H         10.8470   10.3150    3.1360 H       1  UNL1        0.0000
    113  H         10.1220   10.8610    1.1020 H       1  UNL1        0.0000
    114  H         11.0440   12.3570    1.3420 H       1  UNL1        0.0000
@<TRIPOS>BOND
     1     1    89    1
     2     1    19    1
     3     1    20    1
     4     1     2    1
     5     2    41    1
     6     2    21    1
     7     2     3    1
     8     3     4    1
     9     3    22    1
    10     3    17    1
    11     4    18    1
    12     4     5    1
    13     4    33    1
    14     5    23    1
    15     5    82    1
    16     5     6    1
    17     6    24    1
    18     6     7    1
    19     6    69    1
    20     7     8    1
    21     7    26    1
    22     7    25    1
    23     8    45    1
    24     8     9    2
    25     9    27    1
    26     9    10    1
    27    10    12    1
    28    10    28    1
    29    10    11    1
    30    11    14    1
    31    12    17    1
    32    12    16    1
    33    12    13    1
    34    13    16    1
    35    13    37    1
    36    13    14    1
    37    14    15    2
    38    17    29    1
    39    17    62    1
    40    18    19    1
    41    18    55    1
    42    18    30    1
    43    19    31    1
    44    19    32    1
    45    33    34    1
    46    33    36    1
    47    33    35    1
    48    37    39    1
    49    37    40    1
    50    37    38    1
    51    41    44    1
    52    41    42    1
    53    41    43    1
    54    45    46    2
    55    45    47    1
    56    46    48    1
    57    48    49    1
    58    49    50    1
    59    49    52    1
    60    49    51    1
    61    52    53    3
    62    53    54    1
    63    55    56    1
    64    56    57    2
    65    56    58    1
    66    58    59    1
    67    58    60    1
    68    58    61    1
    69    62    63    1
    70    63    65    1
    71    63    64    2
    72    65    68    1
    73    65    66    1
    74    65    67    1
    75    69    70    1
    76    70    71    2
    77    70    72    1
    78    72    73    1
    79    72    75    1
    80    72    74    1
    81    75    77    1
    82    75    78    1
    83    75    76    1
    84    78    79    1
    85    78    80    1
    86    78    81    1
    87    82    83    1
    88    83    85    1
    89    83    84    2
    90    85    86    1
    91    85    88    1
    92    85    87    1
    93    89    91    1
    94    90    91    2
    95    91    92    1
    96    92    93    1
    97    92    95    1
    98    92    94    1
    99    95    97    1
   100    95    96    1
   101    95    98    1
   102    98   104    1
   103    98    99    1
   104    98   103    1
   105    99   106    1
   106    99   105    1
   107    99   100    1
   108   100   108    1
   109   100   107    1
   110   100   101    1
   111   101   110    1
   112   101   102    1
   113   101   109    1
   114   102   103    1
   115   102   111    1
   116   102   112    1
   117   103   113    1
   118   103   114    1
