@<TRIPOS>MOLECULE
UNL
 44 47 0 0 0
SMALL
GASTEIGER

@<TRIPOS>ATOM
      1  C          7.9740   12.7360    6.4060 C.ar    1  UNL1        0.0000
      2  C          8.5230   11.4780    6.6660 C.ar    1  UNL1        0.0000
      3  C          7.9480   10.6300    7.6250 C.ar    1  UNL1        0.0000
      4  C          6.8010   10.9940    8.3460 C.ar    1  UNL1        0.0000
      5  C          6.2600   12.2550    8.0600 C.ar    1  UNL1        0.0000
      6  C          6.8250   13.1120    7.1050 C.ar    1  UNL1        0.0000
      7  H          9.3600   11.1690    6.1470 H       1  UNL1        0.0000
      8  H          8.3820    9.7120    7.8050 H       1  UNL1        0.0000
      9  H          5.4170   12.5640    8.5690 H       1  UNL1        0.0000
     10  H          6.3890   14.0280    6.9170 H       1  UNL1        0.0000
     11  N          6.2240   10.1550    9.2730 N.pl3   1  UNL1        0.0000
     12  C          6.3710   10.3120   10.7290 C.3     1  UNL1        0.0000
     13  C          6.8880    9.0040   11.3490 C.3     1  UNL1        0.0000
     14  O          6.0600    7.8830   10.9950 O.3     1  UNL1        0.0000
     15  C          6.0160    7.7290    9.5670 C.3     1  UNL1        0.0000
     16  C          5.4370    8.9760    8.8770 C.3     1  UNL1        0.0000
     17  H          5.4210   10.5570   11.1560 H       1  UNL1        0.0000
     18  H          7.0710   11.0970   10.9280 H       1  UNL1        0.0000
     19  H          6.8970    9.1060   12.4140 H       1  UNL1        0.0000
     20  H          7.8730    8.8240   10.9730 H       1  UNL1        0.0000
     21  H          5.4040    6.8840    9.3280 H       1  UNL1        0.0000
     22  H          7.0180    7.5880    9.2160 H       1  UNL1        0.0000
     23  H          5.4860    8.8530    7.8160 H       1  UNL1        0.0000
     24  H          4.4170    9.1080    9.1710 H       1  UNL1        0.0000
     25  C          8.5850   13.6610    5.3850 C.3     1  UNL1        0.0000
     26  H          7.8480   13.9070    4.6490 H       1  UNL1        0.0000
     27  H          8.9230   14.5450    5.8830 H       1  UNL1        0.0000
     28  O          9.2100   13.7740    2.6200 O.2     1  UNL1        0.0000
     29  C          9.9230   13.1280    3.3760 C.2     1  UNL1        0.0000
     30  N          9.7110   13.0340    4.7350 N.am    1  UNL1        0.0000
     31  H         10.3510   12.5230    5.2810 H       1  UNL1        0.0000
     32  C         11.1030   12.3910    2.8350 C.ar    1  UNL1        0.0000
     33  C         11.4420   11.1110    3.2850 C.ar    1  UNL1        0.0000
     34  C         12.4970   10.4040    2.6930 C.ar    1  UNL1        0.0000
     35  C         13.2030   10.9680    1.6120 C.ar    1  UNL1        0.0000
     36  N         14.2090   10.3480    0.8920 N.ar    1  UNL1        0.0000
     37  C         14.5890   11.1540   -0.0660 C.ar    1  UNL1        0.0000
     38 CL         15.7630   10.6960   -1.2320 Cl      1  UNL1        0.0000
     39  S         13.8710   12.6870   -0.1460 S.2     1  UNL1        0.0000
     40  C         12.8600   12.2560    1.1850 C.ar    1  UNL1        0.0000
     41  C         11.8270   12.9910    1.7910 C.ar    1  UNL1        0.0000
     42  H         10.9100   10.6840    4.0580 H       1  UNL1        0.0000
     43  H         12.7570    9.4710    3.0490 H       1  UNL1        0.0000
     44  H         11.6050   13.9480    1.4760 H       1  UNL1        0.0000
@<TRIPOS>BOND
     1     1    25    1
     2     1     2   ar
     3     1     6   ar
     4     2     7    1
     5     2     3   ar
     6     3     8    1
     7     3     4   ar
     8     4     5   ar
     9     4    11    1
    10     5     6   ar
    11     5     9    1
    12     6    10    1
    13    11    16    1
    14    11    12    1
    15    12    18    1
    16    12    17    1
    17    12    13    1
    18    13    20    1
    19    13    14    1
    20    13    19    1
    21    14    15    1
    22    15    16    1
    23    15    22    1
    24    15    21    1
    25    16    23    1
    26    16    24    1
    27    25    26    1
    28    25    30    1
    29    25    27    1
    30    28    29    2
    31    29    32    1
    32    29    30   am
    33    30    31    1
    34    32    41   ar
    35    32    33   ar
    36    33    34   ar
    37    33    42    1
    38    34    35   ar
    39    34    43    1
    40    35    36   ar
    41    35    40   ar
    42    36    37   ar
    43    37    38    1
    44    37    39   ar
    45    39    40   ar
    46    40    41   ar
    47    41    44    1
