@<TRIPOS>MOLECULE
UNL
 36 37 0 0 0
SMALL
GASTEIGER

@<TRIPOS>ATOM
      1  C         10.2000   12.9520    3.4640 C.ar    1  UNL1        0.0000
      2  C          9.5530   14.1850    3.5980 C.ar    1  UNL1        0.0000
      3  C          8.7420   14.4530    4.7130 C.ar    1  UNL1        0.0000
      4  C          8.5690   13.5160    5.7380 C.ar    1  UNL1        0.0000
      5  C          9.2390   12.2920    5.5940 C.ar    1  UNL1        0.0000
      6  C         10.0410   12.0090    4.4820 C.ar    1  UNL1        0.0000
      7  H          9.6730   14.9060    2.8700 H       1  UNL1        0.0000
      8  H          8.2590   15.3630    4.7770 H       1  UNL1        0.0000
      9  H          9.1360   11.5760    6.3300 H       1  UNL1        0.0000
     10  H         10.5200   11.0960    4.4140 H       1  UNL1        0.0000
     11  N          7.7760   13.7510    6.8420 N.pl3   1  UNL1        0.0000
     12  C          8.0250   13.1600    8.1640 C.3     1  UNL1        0.0000
     13  C          6.8730   12.2330    8.5760 C.3     1  UNL1        0.0000
     14  O          5.5980   12.8930    8.4850 O.3     1  UNL1        0.0000
     15  C          5.3660   13.3340    7.1380 C.3     1  UNL1        0.0000
     16  C          6.4350   14.3370    6.6770 C.3     1  UNL1        0.0000
     17  H          8.1190   13.9440    8.8870 H       1  UNL1        0.0000
     18  H          8.9270   12.5860    8.1180 H       1  UNL1        0.0000
     19  H          7.0280   11.9160    9.5860 H       1  UNL1        0.0000
     20  H          6.8640   11.3980    7.9080 H       1  UNL1        0.0000
     21  H          4.4050   13.8030    7.0870 H       1  UNL1        0.0000
     22  H          5.4100   12.4800    6.4940 H       1  UNL1        0.0000
     23  H          6.2770   14.5760    5.6460 H       1  UNL1        0.0000
     24  H          6.3640   15.2260    7.2680 H       1  UNL1        0.0000
     25  C         11.0590   12.6510    2.2640 C.3     1  UNL1        0.0000
     26  H         10.4340   12.3050    1.4670 H       1  UNL1        0.0000
     27  H         11.5720   13.5480    1.9860 H       1  UNL1        0.0000
     28  O         12.1000   10.8050    0.4150 O.2     1  UNL1        0.0000
     29  C         12.4870   10.7820    1.5760 C.2     1  UNL1        0.0000
     30  N         12.0470   11.6380    2.5550 N.am    1  UNL1        0.0000
     31  H         12.4090   11.5610    3.4680 H       1  UNL1        0.0000
     32  C         13.4930    9.8090    2.0730 C.2     1  UNL1        0.0000
     33  C         13.3060    9.1180    3.2050 C.2     1  UNL1        0.0000
     34  H         14.3580    9.6590    1.5300 H       1  UNL1        0.0000
     35  H         12.4470    9.2580    3.7580 H       1  UNL1        0.0000
     36  H         14.0230    8.4490    3.5240 H       1  UNL1        0.0000
@<TRIPOS>BOND
     1     1    25    1
     2     1     2   ar
     3     1     6   ar
     4     2     7    1
     5     2     3   ar
     6     3     8    1
     7     3     4   ar
     8     4     5   ar
     9     4    11    1
    10     5     6   ar
    11     5     9    1
    12     6    10    1
    13    11    16    1
    14    11    12    1
    15    12    18    1
    16    12    13    1
    17    12    17    1
    18    13    20    1
    19    13    14    1
    20    13    19    1
    21    14    15    1
    22    15    22    1
    23    15    16    1
    24    15    21    1
    25    16    23    1
    26    16    24    1
    27    25    26    1
    28    25    27    1
    29    25    30    1
    30    28    29    2
    31    29    32    1
    32    29    30   am
    33    30    31    1
    34    32    34    1
    35    32    33    2
    36    33    36    1
    37    33    35    1
