@<TRIPOS>MOLECULE
UNL
 48 49 0 0 0
SMALL
GASTEIGER

@<TRIPOS>ATOM
      1  C          8.8170   13.2680    5.1970 C.3     1  UNL1        0.0000
      2  H          8.1410   13.4710    4.3910 H       1  UNL1        0.0000
      3  H          9.1310   14.1700    5.6810 H       1  UNL1        0.0000
      4  C          8.1070   12.4200    6.2210 C.ar    1  UNL1        0.0000
      5  C          8.6450   11.2040    6.6530 C.ar    1  UNL1        0.0000
      6  C          8.0000   10.4460    7.6440 C.ar    1  UNL1        0.0000
      7  C          6.7900   10.8570    8.2170 C.ar    1  UNL1        0.0000
      8  C          6.2540   12.0670    7.7510 C.ar    1  UNL1        0.0000
      9  C          6.8940   12.8380    6.7720 C.ar    1  UNL1        0.0000
     10  H          9.5260   10.8600    6.2400 H       1  UNL1        0.0000
     11  H          8.4290    9.5610    7.9580 H       1  UNL1        0.0000
     12  H          5.3590   12.3990    8.1430 H       1  UNL1        0.0000
     13  H          6.4650   13.7220    6.4560 H       1  UNL1        0.0000
     14  N          6.1480   10.1330    9.2000 N.pl3   1  UNL1        0.0000
     15  C          6.3790   10.3240   10.6380 C.3     1  UNL1        0.0000
     16  C          6.9290    9.0380   11.2730 C.3     1  UNL1        0.0000
     17  O          6.0930    7.9030   10.9860 O.3     1  UNL1        0.0000
     18  C          5.9970    7.7060    9.5650 C.3     1  UNL1        0.0000
     19  C          5.3770    8.9260    8.8630 C.3     1  UNL1        0.0000
     20  H          5.4550   10.5830   11.1120 H       1  UNL1        0.0000
     21  H          7.0960   11.1070   10.7720 H       1  UNL1        0.0000
     22  H          6.9810    9.1700   12.3340 H       1  UNL1        0.0000
     23  H          7.8970    8.8510   10.8610 H       1  UNL1        0.0000
     24  H          5.3870    6.8480    9.3730 H       1  UNL1        0.0000
     25  H          6.9850    7.5660    9.1800 H       1  UNL1        0.0000
     26  H          5.3960    8.7750    7.8030 H       1  UNL1        0.0000
     27  H          4.3660    9.0480    9.1900 H       1  UNL1        0.0000
     28  O          8.9510   11.9610    2.7290 O.2     1  UNL1        0.0000
     29  C          9.9450   12.0000    3.4390 C.2     1  UNL1        0.0000
     30  N          9.9920   12.6200    4.6660 N.am    1  UNL1        0.0000
     31  H         10.8290   12.6220    5.1840 H       1  UNL1        0.0000
     32  C         11.2380   11.3750    3.0540 C.2     1  UNL1        0.0000
     33  C         11.5140   11.0680    1.7740 C.2     1  UNL1        0.0000
     34  H         11.9390   11.1710    3.7840 H       1  UNL1        0.0000
     35  H         10.7900   11.2510    1.0610 H       1  UNL1        0.0000
     36  C         12.8190   10.4740    1.3260 C.3     1  UNL1        0.0000
     37  H         12.7460    9.4080    1.3850 H       1  UNL1        0.0000
     38  H         13.5830   10.8600    1.9690 H       1  UNL1        0.0000
     39  N         13.1790   10.8430   -0.0520 N.4     1  UNL1        0.0000
     40  H         13.0760   10.0050   -0.6240 H       1  UNL1        0.0000
     41  C         12.2920   11.8730   -0.5990 C.3     1  UNL1        0.0000
     42  H         12.7330   12.2920   -1.4800 H       1  UNL1        0.0000
     43  H         12.1500   12.6440    0.1300 H       1  UNL1        0.0000
     44  H         11.3480   11.4360   -0.8450 H       1  UNL1        0.0000
     45  C         14.5640   11.3210   -0.0970 C.3     1  UNL1        0.0000
     46  H         15.0430   11.1160    0.8370 H       1  UNL1        0.0000
     47  H         14.5720   12.3750   -0.2790 H       1  UNL1        0.0000
     48  H         15.0890   10.8200   -0.8840 H       1  UNL1        0.0000
@<TRIPOS>BOND
     1     1     2    1
     2     1    30    1
     3     1     3    1
     4     1     4    1
     5     4     5   ar
     6     4     9   ar
     7     5    10    1
     8     5     6   ar
     9     6    11    1
    10     6     7   ar
    11     7     8   ar
    12     7    14    1
    13     8     9   ar
    14     8    12    1
    15     9    13    1
    16    14    19    1
    17    14    15    1
    18    15    21    1
    19    15    20    1
    20    15    16    1
    21    16    23    1
    22    16    17    1
    23    16    22    1
    24    17    18    1
    25    18    19    1
    26    18    25    1
    27    18    24    1
    28    19    26    1
    29    19    27    1
    30    28    29    2
    31    29    32    1
    32    29    30   am
    33    30    31    1
    34    32    33    2
    35    32    34    1
    36    33    35    1
    37    33    36    1
    38    36    39    1
    39    36    37    1
    40    36    38    1
    41    39    40    1
    42    39    41    1
    43    39    45    1
    44    41    42    1
    45    41    44    1
    46    41    43    1
    47    45    48    1
    48    45    47    1
    49    45    46    1
