@<TRIPOS>MOLECULE
UNL
 48 49 0 0 0
SMALL
GASTEIGER

@<TRIPOS>ATOM
      1  C          9.9970   12.8720    3.2220 C.3     1  UNL1        0.0000
      2  H          9.2840   12.4570    2.5410 H       1  UNL1        0.0000
      3  H         10.2200   13.8880    2.9720 H       1  UNL1        0.0000
      4  C          9.4180   12.8480    4.6130 C.ar    1  UNL1        0.0000
      5  C          8.6590   13.9200    5.0880 C.ar    1  UNL1        0.0000
      6  C          8.0880   13.8800    6.3670 C.ar    1  UNL1        0.0000
      7  C          8.2640   12.7880    7.2270 C.ar    1  UNL1        0.0000
      8  C          9.0610   11.7380    6.7480 C.ar    1  UNL1        0.0000
      9  C          9.6300   11.7610    5.4650 C.ar    1  UNL1        0.0000
     10  H          8.5170   14.7490    4.4910 H       1  UNL1        0.0000
     11  H          7.5190   14.6800    6.6850 H       1  UNL1        0.0000
     12  H          9.2340   10.9220    7.3570 H       1  UNL1        0.0000
     13  H         10.2110   10.9690    5.1470 H       1  UNL1        0.0000
     14  N          7.6880   12.7450    8.4770 N.pl3   1  UNL1        0.0000
     15  C          6.7270   11.7090    8.8880 C.3     1  UNL1        0.0000
     16  C          5.4250   12.3650    9.3690 C.3     1  UNL1        0.0000
     17  O          5.6710   13.3270   10.4090 O.3     1  UNL1        0.0000
     18  C          6.5480   14.3620    9.9310 C.3     1  UNL1        0.0000
     19  C          7.9070   13.7980    9.4780 C.3     1  UNL1        0.0000
     20  H          7.1480   11.1310    9.6850 H       1  UNL1        0.0000
     21  H          6.5150   11.0760    8.0530 H       1  UNL1        0.0000
     22  H          4.7720   11.6060    9.7460 H       1  UNL1        0.0000
     23  H          4.9780   12.8730    8.5400 H       1  UNL1        0.0000
     24  H          6.7110   15.0680   10.7170 H       1  UNL1        0.0000
     25  H          6.0840   14.8250    9.0850 H       1  UNL1        0.0000
     26  H          8.4950   14.5820    9.0490 H       1  UNL1        0.0000
     27  H          8.4250   13.3880   10.3220 H       1  UNL1        0.0000
     28  O         10.4480   10.7080    1.5100 O.2     1  UNL1        0.0000
     29  C         11.3430   11.0500    2.2760 C.2     1  UNL1        0.0000
     30  N         11.2210   12.1110    3.1380 N.am    1  UNL1        0.0000
     31  H         11.9830   12.3580    3.7110 H       1  UNL1        0.0000
     32  C         12.6780   10.3560    2.2780 C.2     1  UNL1        0.0000
     33  C         12.9870    9.4470    3.2250 C.2     1  UNL1        0.0000
     34  H         12.3300    9.2680    4.0010 H       1  UNL1        0.0000
     35  H         13.8790    8.9300    3.1740 H       1  UNL1        0.0000
     36  C         13.5870   10.6830    1.0990 C.3     1  UNL1        0.0000
     37  H         13.6370    9.8190    0.4710 H       1  UNL1        0.0000
     38  H         14.5280   10.9630    1.5240 H       1  UNL1        0.0000
     39  N         13.1610   11.8340    0.2610 N.4     1  UNL1        0.0000
     40  H         12.3910   12.2940    0.7480 H       1  UNL1        0.0000
     41  C         14.2520   12.7990    0.0770 C.3     1  UNL1        0.0000
     42  H         13.9750   13.5130   -0.6700 H       1  UNL1        0.0000
     43  H         15.1360   12.2830   -0.2340 H       1  UNL1        0.0000
     44  H         14.4400   13.3050    1.0010 H       1  UNL1        0.0000
     45  C         12.7190   11.3660   -1.0580 C.3     1  UNL1        0.0000
     46  H         13.0580   12.0490   -1.8100 H       1  UNL1        0.0000
     47  H         11.6510   11.3140   -1.0790 H       1  UNL1        0.0000
     48  H         13.1280   10.3960   -1.2480 H       1  UNL1        0.0000
@<TRIPOS>BOND
     1     1     2    1
     2     1     3    1
     3     1    30    1
     4     1     4    1
     5     4     5   ar
     6     4     9   ar
     7     5    10    1
     8     5     6   ar
     9     6    11    1
    10     6     7   ar
    11     7     8   ar
    12     7    14    1
    13     8     9   ar
    14     8    12    1
    15     9    13    1
    16    14    15    1
    17    14    19    1
    18    15    21    1
    19    15    16    1
    20    15    20    1
    21    16    23    1
    22    16    22    1
    23    16    17    1
    24    17    18    1
    25    18    25    1
    26    18    19    1
    27    18    24    1
    28    19    26    1
    29    19    27    1
    30    28    29    2
    31    29    32    1
    32    29    30   am
    33    30    31    1
    34    32    36    1
    35    32    33    2
    36    33    35    1
    37    33    34    1
    38    36    39    1
    39    36    37    1
    40    36    38    1
    41    39    45    1
    42    39    41    1
    43    39    40    1
    44    41    42    1
    45    41    43    1
    46    41    44    1
    47    45    46    1
    48    45    48    1
    49    45    47    1
