@<TRIPOS>MOLECULE
UNL
 37 38 0 0 0
SMALL
GASTEIGER

@<TRIPOS>ATOM
      1  C          8.5260   12.4920    5.9540 C.ar    1  UNL1        0.0000
      2  C          8.0250   13.3000    6.9750 C.ar    1  UNL1        0.0000
      3  C          7.4140   12.7290    8.0980 C.ar    1  UNL1        0.0000
      4  C          7.2850   11.3410    8.2540 C.ar    1  UNL1        0.0000
      5  C          7.8400   10.5440    7.2420 C.ar    1  UNL1        0.0000
      6  C          8.4510   11.1050    6.1100 C.ar    1  UNL1        0.0000
      7  H          8.1060   14.3270    6.9020 H       1  UNL1        0.0000
      8  H          7.0450   13.3490    8.8340 H       1  UNL1        0.0000
      9  H          7.7980    9.5170    7.3320 H       1  UNL1        0.0000
     10  H          8.8470   10.4870    5.3840 H       1  UNL1        0.0000
     11  N          6.6490   10.8000    9.3470 N.pl3   1  UNL1        0.0000
     12  C          6.0690   11.6270   10.4160 C.3     1  UNL1        0.0000
     13  C          6.6170   11.1570   11.7680 C.3     1  UNL1        0.0000
     14  O          6.3340    9.7620   11.9810 O.3     1  UNL1        0.0000
     15  C          6.9370    8.9630   10.9470 C.3     1  UNL1        0.0000
     16  C          6.4430    9.3580    9.5400 C.3     1  UNL1        0.0000
     17  H          5.0040   11.5300   10.4070 H       1  UNL1        0.0000
     18  H          6.3300   12.6530   10.2590 H       1  UNL1        0.0000
     19  H          6.1620   11.7290   12.5490 H       1  UNL1        0.0000
     20  H          7.6780   11.2940   11.7730 H       1  UNL1        0.0000
     21  H          6.6960    7.9350   11.1200 H       1  UNL1        0.0000
     22  H          7.9940    9.1290   10.9800 H       1  UNL1        0.0000
     23  H          6.9960    8.8150    8.8010 H       1  UNL1        0.0000
     24  H          5.4040    9.1250    9.4430 H       1  UNL1        0.0000
     25  C          9.1390   13.1040    4.7260 C.3     1  UNL1        0.0000
     26  H          8.4020   13.1390    3.9520 H       1  UNL1        0.0000
     27  H          9.4790   14.0870    4.9780 H       1  UNL1        0.0000
     28  O          9.3760   11.9280    2.1800 O.2     1  UNL1        0.0000
     29  C         10.2800   11.8160    2.9960 C.2     1  UNL1        0.0000
     30  N         10.2690   12.3470    4.2590 N.am    1  UNL1        0.0000
     31  H         11.0420   12.2100    4.8520 H       1  UNL1        0.0000
     32  C         11.4740   11.0770    2.6520 C.1     1  UNL1        0.0000
     33  C         12.4640   10.4660    2.3550 C.1     1  UNL1        0.0000
     34  C         13.6660    9.7140    1.9950 C.3     1  UNL1        0.0000
     35  H         14.3490    9.7160    2.8190 H       1  UNL1        0.0000
     36  H         14.1310   10.1710    1.1460 H       1  UNL1        0.0000
     37  H         13.3990    8.7060    1.7550 H       1  UNL1        0.0000
@<TRIPOS>BOND
     1     1    25    1
     2     1     6   ar
     3     1     2   ar
     4     2     7    1
     5     2     3   ar
     6     3     4   ar
     7     3     8    1
     8     4     5   ar
     9     4    11    1
    10     5     6   ar
    11     5     9    1
    12     6    10    1
    13    11    16    1
    14    11    12    1
    15    12    18    1
    16    12    17    1
    17    12    13    1
    18    13    20    1
    19    13    14    1
    20    13    19    1
    21    14    15    1
    22    15    16    1
    23    15    22    1
    24    15    21    1
    25    16    23    1
    26    16    24    1
    27    25    26    1
    28    25    30    1
    29    25    27    1
    30    28    29    2
    31    29    32    1
    32    29    30   am
    33    30    31    1
    34    32    33    3
    35    33    34    1
    36    34    36    1
    37    34    37    1
    38    34    35    1
