@<TRIPOS>MOLECULE
UNL
 35 36 0 0 0
SMALL
GASTEIGER

@<TRIPOS>ATOM
      1  C         13.2780    9.8450    2.8940 C.ar    1  UNL1        0.0000
      2  C         12.0910   10.5020    3.2280 C.ar    1  UNL1        0.0000
      3  C         11.4840   11.3890    2.3250 C.ar    1  UNL1        0.0000
      4  C         12.0230   11.6350    1.0550 C.ar    1  UNL1        0.0000
      5  C         13.1990   10.9420    0.7290 C.ar    1  UNL1        0.0000
      6  C         13.8180   10.0610    1.6250 C.ar    1  UNL1        0.0000
      7  H         11.6550   10.3340    4.1490 H       1  UNL1        0.0000
      8  H         10.6170   11.8740    2.6040 H       1  UNL1        0.0000
      9  H         13.6220   11.0870   -0.2010 H       1  UNL1        0.0000
     10  H         14.6790    9.5650    1.3440 H       1  UNL1        0.0000
     11  N         11.4470   12.5140    0.1660 N.pl3   1  UNL1        0.0000
     12  C         10.1670   13.1980    0.4020 C.3     1  UNL1        0.0000
     13  C          9.1660   12.8500   -0.7120 C.3     1  UNL1        0.0000
     14  O          9.7060   13.1230   -2.0160 O.3     1  UNL1        0.0000
     15  C         10.9080   12.3620   -2.2250 C.3     1  UNL1        0.0000
     16  C         11.9890   12.7100   -1.1870 C.3     1  UNL1        0.0000
     17  H         10.3270   14.2550    0.4140 H       1  UNL1        0.0000
     18  H          9.7680   12.8770    1.3410 H       1  UNL1        0.0000
     19  H          8.2790   13.4320   -0.5740 H       1  UNL1        0.0000
     20  H          8.9500   11.8040   -0.6510 H       1  UNL1        0.0000
     21  H         11.2860   12.5720   -3.2040 H       1  UNL1        0.0000
     22  H         10.6680   11.3240   -2.1220 H       1  UNL1        0.0000
     23  H         12.8370   12.0720   -1.3270 H       1  UNL1        0.0000
     24  H         12.2870   13.7290   -1.3100 H       1  UNL1        0.0000
     25  C         13.9670    8.9420    3.8770 C.3     1  UNL1        0.0000
     26  H         14.0440    7.9640    3.4500 H       1  UNL1        0.0000
     27  H         14.9320    9.3580    4.0820 H       1  UNL1        0.0000
     28  O         15.1520    9.0240    6.3770 O.2     1  UNL1        0.0000
     29  C         13.9290    8.8910    6.3260 C.2     1  UNL1        0.0000
     30  N         13.2550    8.8450    5.1280 N.am    1  UNL1        0.0000
     31  H         12.2760    8.7440    5.1240 H       1  UNL1        0.0000
     32  C         13.1130    8.7720    7.5990 C.3     1  UNL1        0.0000
     33 CL         13.9440    7.8710    8.8850 Cl      1  UNL1        0.0000
     34  H         12.1970    8.2690    7.3700 H       1  UNL1        0.0000
     35  H         12.9470    9.7650    7.9630 H       1  UNL1        0.0000
@<TRIPOS>BOND
     1     1     6   ar
     2     1     2   ar
     3     1    25    1
     4     2     3   ar
     5     2     7    1
     6     3     4   ar
     7     3     8    1
     8     4    11    1
     9     4     5   ar
    10     5     9    1
    11     5     6   ar
    12     6    10    1
    13    11    16    1
    14    11    12    1
    15    12    13    1
    16    12    17    1
    17    12    18    1
    18    13    14    1
    19    13    20    1
    20    13    19    1
    21    14    15    1
    22    15    21    1
    23    15    22    1
    24    15    16    1
    25    16    23    1
    26    16    24    1
    27    25    26    1
    28    25    27    1
    29    25    30    1
    30    28    29    2
    31    29    30   am
    32    29    32    1
    33    30    31    1
    34    32    34    1
    35    32    35    1
    36    32    33    1
