@<TRIPOS>MOLECULE
UNL
 45 47 0 0 0
SMALL
GASTEIGER

@<TRIPOS>ATOM
      1  C          8.3100   12.3010    6.8870 C.ar    1  UNL1        0.0000
      2  C          7.8680   10.9770    6.9160 C.ar    1  UNL1        0.0000
      3  C          7.0410   10.5140    7.9460 C.ar    1  UNL1        0.0000
      4  C          6.6370   11.3340    9.0070 C.ar    1  UNL1        0.0000
      5  C          7.1120   12.6510    8.9880 C.ar    1  UNL1        0.0000
      6  C          7.9310   13.1300    7.9510 C.ar    1  UNL1        0.0000
      7  H          8.1540   10.3280    6.1660 H       1  UNL1        0.0000
      8  H          6.7180    9.5340    7.9230 H       1  UNL1        0.0000
      9  H          6.8520   13.2880    9.7570 H       1  UNL1        0.0000
     10  H          8.2580   14.1090    7.9730 H       1  UNL1        0.0000
     11  N          5.8630   10.8300   10.0280 N.pl3   1  UNL1        0.0000
     12  C          5.8180   11.4140   11.3740 C.3     1  UNL1        0.0000
     13  C          5.8280   10.2700   12.4080 C.3     1  UNL1        0.0000
     14  O          4.7610    9.3300   12.1830 O.3     1  UNL1        0.0000
     15  C          4.8670    8.7560   10.8680 C.3     1  UNL1        0.0000
     16  C          4.8000    9.8400    9.7820 C.3     1  UNL1        0.0000
     17  H          4.9240   11.9930   11.4860 H       1  UNL1        0.0000
     18  H          6.6630   12.0510   11.5260 H       1  UNL1        0.0000
     19  H          5.7190   10.6880   13.3870 H       1  UNL1        0.0000
     20  H          6.7550    9.7450   12.3110 H       1  UNL1        0.0000
     21  H          4.0610    8.0680   10.7220 H       1  UNL1        0.0000
     22  H          5.8110    8.2580   10.7910 H       1  UNL1        0.0000
     23  H          4.9420    9.3940    8.8200 H       1  UNL1        0.0000
     24  H          3.8450   10.3210    9.8080 H       1  UNL1        0.0000
     25  C          9.2570   12.8190    5.8240 C.3     1  UNL1        0.0000
     26  H          8.9630   13.8160    5.5670 H       1  UNL1        0.0000
     27  H         10.2440   12.7780    6.2350 H       1  UNL1        0.0000
     28  N          9.2670   12.0070    4.6000 N.3     1  UNL1        0.0000
     29  H         10.0530   11.3610    4.6680 H       1  UNL1        0.0000
     30  O          8.3070   12.4070    2.2860 O.2     1  UNL1        0.0000
     31  S          9.4030   12.8110    3.1360 S.O2    1  UNL1        0.0000
     32  O          9.6530   14.1960    3.4590 O.2     1  UNL1        0.0000
     33  C         10.9110   12.1660    2.4570 C.ar    1  UNL1        0.0000
     34  C         11.5830   11.1390    3.1190 C.ar    1  UNL1        0.0000
     35  C         12.6990   10.5610    2.4970 C.ar    1  UNL1        0.0000
     36  C         13.1600   11.0010    1.2540 C.ar    1  UNL1        0.0000
     37 CL         14.5460   10.3450    0.4630 Cl      1  UNL1        0.0000
     38  C         12.4780   12.0430    0.6140 C.ar    1  UNL1        0.0000
     39  C         11.3510   12.6220    1.2100 C.ar    1  UNL1        0.0000
     40  H         11.2670   10.8120    4.0450 H       1  UNL1        0.0000
     41  H         12.8080   12.3860   -0.3010 H       1  UNL1        0.0000
     42  H         10.8470   13.3850    0.7290 H       1  UNL1        0.0000
     43  N         13.3490    9.4650    3.1810 N.pl3   1  UNL1        0.0000
     44  O         13.0300    8.3230    2.8280 O.2     1  UNL1        0.0000
     45  O         14.2140    9.7510    4.0190 O.2     1  UNL1        0.0000
@<TRIPOS>BOND
     1     1    25    1
     2     1     2   ar
     3     1     6   ar
     4     2     7    1
     5     2     3   ar
     6     3     8    1
     7     3     4   ar
     8     4     5   ar
     9     4    11    1
    10     5     6   ar
    11     5     9    1
    12     6    10    1
    13    11    16    1
    14    11    12    1
    15    12    17    1
    16    12    18    1
    17    12    13    1
    18    13    14    1
    19    13    20    1
    20    13    19    1
    21    14    15    1
    22    15    16    1
    23    15    21    1
    24    15    22    1
    25    16    23    1
    26    16    24    1
    27    25    28    1
    28    25    26    1
    29    25    27    1
    30    28    31    1
    31    28    29    1
    32    30    31    2
    33    31    33    1
    34    31    32    2
    35    33    39   ar
    36    33    34   ar
    37    34    35   ar
    38    34    40    1
    39    35    36   ar
    40    35    43    1
    41    36    37    1
    42    36    38   ar
    43    38    41    1
    44    38    39   ar
    45    39    42    1
    46    43    44    2
    47    43    45    2
