@<TRIPOS>MOLECULE
UNL
 43 45 0 0 0
SMALL
GASTEIGER

@<TRIPOS>ATOM
      1  C          7.9720   12.9800    6.6320 C.ar    1  UNL1        0.0000
      2  C          7.1040   13.4640    7.6150 C.ar    1  UNL1        0.0000
      3  C          6.5140   12.5980    8.5480 C.ar    1  UNL1        0.0000
      4  C          6.7550   11.2210    8.5370 C.ar    1  UNL1        0.0000
      5  C          7.6320   10.7470    7.5520 C.ar    1  UNL1        0.0000
      6  C          8.2250   11.6020    6.6130 C.ar    1  UNL1        0.0000
      7  H          6.8950   14.4740    7.6560 H       1  UNL1        0.0000
      8  H          5.8830   12.9900    9.2640 H       1  UNL1        0.0000
      9  H          7.8480    9.7390    7.5170 H       1  UNL1        0.0000
     10  H          8.8560   11.2100    5.8950 H       1  UNL1        0.0000
     11  N          6.1470   10.3560    9.4210 N.pl3   1  UNL1        0.0000
     12  C          6.2910   10.4620   10.8810 C.3     1  UNL1        0.0000
     13  C          6.9790    9.2130   11.4470 C.3     1  UNL1        0.0000
     14  O          6.3050    8.0080   11.0440 O.3     1  UNL1        0.0000
     15  C          6.2900    7.9060    9.6100 C.3     1  UNL1        0.0000
     16  C          5.5530    9.0900    8.9600 C.3     1  UNL1        0.0000
     17  H          5.3210   10.5590   11.3230 H       1  UNL1        0.0000
     18  H          6.8890   11.3180   11.1080 H       1  UNL1        0.0000
     19  H          6.9790    9.2700   12.5160 H       1  UNL1        0.0000
     20  H          7.9790    9.1800   11.0670 H       1  UNL1        0.0000
     21  H          5.7970    6.9970    9.3340 H       1  UNL1        0.0000
     22  H          7.3030    7.9130    9.2650 H       1  UNL1        0.0000
     23  H          5.6410    9.0230    7.8960 H       1  UNL1        0.0000
     24  H          4.5210    9.0610    9.2400 H       1  UNL1        0.0000
     25  C          8.5620   13.8500    5.5430 C.3     1  UNL1        0.0000
     26  H          7.7620   14.1870    4.9170 H       1  UNL1        0.0000
     27  H          9.0750   14.6480    6.0380 H       1  UNL1        0.0000
     28  N          9.5530   13.1840    4.6980 N.3     1  UNL1        0.0000
     29  H         10.3720   13.7910    4.6580 H       1  UNL1        0.0000
     30  O          7.9760   11.9500    3.1710 O.2     1  UNL1        0.0000
     31  S          9.1300   12.8190    3.1170 S.O2    1  UNL1        0.0000
     32  O          9.1080   14.0580    2.3760 O.2     1  UNL1        0.0000
     33  C         10.4630   11.8300    2.5550 C.ar    1  UNL1        0.0000
     34  C         10.7550   11.8250    1.1940 C.ar    1  UNL1        0.0000
     35  F          9.9660   12.4680    0.3200 F       1  UNL1        0.0000
     36  C         11.8580   11.1230    0.7170 C.ar    1  UNL1        0.0000
     37  F         12.1320   11.1230   -0.5950 F       1  UNL1        0.0000
     38  C         12.6670   10.4220    1.5970 C.ar    1  UNL1        0.0000
     39  F         13.7290    9.7450    1.1400 F       1  UNL1        0.0000
     40  C         12.3680   10.4130    2.9530 C.ar    1  UNL1        0.0000
     41  F         13.1390    9.7240    3.8030 F       1  UNL1        0.0000
     42  C         11.2680   11.1210    3.4340 C.ar    1  UNL1        0.0000
     43  F         11.0160   11.0850    4.7480 F       1  UNL1        0.0000
@<TRIPOS>BOND
     1     1    25    1
     2     1     6   ar
     3     1     2   ar
     4     2     7    1
     5     2     3   ar
     6     3     4   ar
     7     3     8    1
     8     4     5   ar
     9     4    11    1
    10     5     6   ar
    11     5     9    1
    12     6    10    1
    13    11    16    1
    14    11    12    1
    15    12    18    1
    16    12    17    1
    17    12    13    1
    18    13    14    1
    19    13    20    1
    20    13    19    1
    21    14    15    1
    22    15    16    1
    23    15    22    1
    24    15    21    1
    25    16    23    1
    26    16    24    1
    27    25    28    1
    28    25    26    1
    29    25    27    1
    30    28    31    1
    31    28    29    1
    32    30    31    2
    33    31    32    2
    34    31    33    1
    35    33    34   ar
    36    33    42   ar
    37    34    35    1
    38    34    36   ar
    39    36    37    1
    40    36    38   ar
    41    38    39    1
    42    38    40   ar
    43    40    42   ar
    44    40    41    1
    45    42    43    1
