@<TRIPOS>MOLECULE
UNL
 58 61 0 0 0
SMALL
GASTEIGER

@<TRIPOS>ATOM
      1  O         11.4530    1.5530   25.2980 O.2     1  UNL1        0.0000
      2  C         10.2450    1.4430   25.5050 C.2     1  UNL1        0.0000
      3  N          9.3760    0.7750   24.6750 N.am    1  UNL1        0.0000
      4  H          8.4330    0.7050   24.9490 H       1  UNL1        0.0000
      5  C          9.6830    2.0770   26.7450 C.ar    1  UNL1        0.0000
      6  C          8.8720    1.4480   27.7030 C.ar    1  UNL1        0.0000
      7 CL          8.2970   -0.1770   27.5790 Cl      1  UNL1        0.0000
      8  C          8.4440    2.1570   28.8340 C.ar    1  UNL1        0.0000
      9  C          8.8070    3.4890   29.0150 C.ar    1  UNL1        0.0000
     10  F          8.3640    4.1140   30.1160 F       1  UNL1        0.0000
     11  C          9.5960    4.1500   28.0770 C.ar    1  UNL1        0.0000
     12  C         10.0230    3.4350   26.9450 C.ar    1  UNL1        0.0000
     13  H          7.8530    1.6880   29.5380 H       1  UNL1        0.0000
     14  H         10.6040    3.9150   26.2400 H       1  UNL1        0.0000
     15  C          9.9940    5.5810   28.2130 C.2     1  UNL1        0.0000
     16  N         10.9900    6.0520   27.3880 N.am    1  UNL1        0.0000
     17  O          9.4340    6.2890   29.0460 O.2     1  UNL1        0.0000
     18  H         11.3930    5.4390   26.7310 H       1  UNL1        0.0000
     19  C         11.4650    7.4170   27.4520 C.3     1  UNL1        0.0000
     20  H         11.2380    7.8170   28.4190 H       1  UNL1        0.0000
     21  H         10.9780    7.9780   26.6830 H       1  UNL1        0.0000
     22  C         12.9530    7.4990   27.2270 C.ar    1  UNL1        0.0000
     23  C         13.7130    8.5450   27.7750 C.ar    1  UNL1        0.0000
     24  C         15.0950    8.6030   27.5730 C.ar    1  UNL1        0.0000
     25  C         15.7210    7.6100   26.8240 C.ar    1  UNL1        0.0000
     26  F         17.0470    7.6700   26.6340 F       1  UNL1        0.0000
     27  C         14.9810    6.5700   26.2800 C.ar    1  UNL1        0.0000
     28  F         15.5880    5.6170   25.5580 F       1  UNL1        0.0000
     29  C         13.6050    6.5050   26.4770 C.ar    1  UNL1        0.0000
     30  H         13.2470    9.2780   28.3340 H       1  UNL1        0.0000
     31  H         15.6480    9.3750   27.9760 H       1  UNL1        0.0000
     32  H         13.0630    5.7250   26.0730 H       1  UNL1        0.0000
     33  C          9.7540    0.1870   23.4620 C.ar    1  UNL1        0.0000
     34  C          9.3670    0.6550   22.2050 C.ar    1  UNL1        0.0000
     35  C          9.8410   -0.0460   21.0780 C.ar    1  UNL1        0.0000
     36  C         10.6750   -1.1580   21.1970 C.ar    1  UNL1        0.0000
     37  C         11.0070   -1.4990   22.5080 C.ar    1  UNL1        0.0000
     38  N         10.6060   -0.8430   23.6250 N.ar    1  UNL1        0.0000
     39  H          9.5620    0.2730   20.1370 H       1  UNL1        0.0000
     40  H         11.6120   -2.3240   22.6390 H       1  UNL1        0.0000
     41  N         11.1690   -1.8450   20.1100 N.pl3   1  UNL1        0.0000
     42  C         10.3500   -2.1870   18.9390 C.3     1  UNL1        0.0000
     43  C         10.2270   -3.7090   18.7920 C.3     1  UNL1        0.0000
     44  O         11.5180   -4.3400   18.7650 O.3     1  UNL1        0.0000
     45  C         12.2330   -4.0640   19.9830 C.3     1  UNL1        0.0000
     46  C         12.4560   -2.5530   20.1860 C.3     1  UNL1        0.0000
     47  H         10.8090   -1.7860   18.0600 H       1  UNL1        0.0000
     48  H          9.3730   -1.7730   19.0700 H       1  UNL1        0.0000
     49  H          9.7120   -3.9300   17.8810 H       1  UNL1        0.0000
     50  H          9.6860   -4.0860   19.6350 H       1  UNL1        0.0000
     51  H         13.1840   -4.5530   19.9450 H       1  UNL1        0.0000
     52  H         11.6470   -4.4270   20.8010 H       1  UNL1        0.0000
     53  H         12.8980   -2.3860   21.1450 H       1  UNL1        0.0000
     54  H         13.1070   -2.1870   19.4190 H       1  UNL1        0.0000
     55  C          8.5300    1.8780   21.9670 C.3     1  UNL1        0.0000
     56  H          8.2500    1.9230   20.9350 H       1  UNL1        0.0000
     57  H          9.0930    2.7510   22.2220 H       1  UNL1        0.0000
     58  H          7.6500    1.8310   22.5740 H       1  UNL1        0.0000
@<TRIPOS>BOND
     1     1     2    2
     2     2     3   am
     3     2     5    1
     4     3    33    1
     5     3     4    1
     6     5    12   ar
     7     5     6   ar
     8     6     7    1
     9     6     8   ar
    10     8     9   ar
    11     8    13    1
    12     9    11   ar
    13     9    10    1
    14    11    12   ar
    15    11    15    1
    16    12    14    1
    17    15    16   am
    18    15    17    2
    19    16    18    1
    20    16    19    1
    21    19    21    1
    22    19    22    1
    23    19    20    1
    24    22    29   ar
    25    22    23   ar
    26    23    24   ar
    27    23    30    1
    28    24    25   ar
    29    24    31    1
    30    25    27   ar
    31    25    26    1
    32    27    28    1
    33    27    29   ar
    34    29    32    1
    35    33    34   ar
    36    33    38   ar
    37    34    35   ar
    38    34    55    1
    39    35    39    1
    40    35    36   ar
    41    36    41    1
    42    36    37   ar
    43    37    40    1
    44    37    38   ar
    45    41    42    1
    46    41    46    1
    47    42    47    1
    48    42    43    1
    49    42    48    1
    50    43    49    1
    51    43    44    1
    52    43    50    1
    53    44    45    1
    54    45    51    1
    55    45    46    1
    56    45    52    1
    57    46    54    1
    58    46    53    1
    59    55    56    1
    60    55    57    1
    61    55    58    1
