@<TRIPOS>MOLECULE
UNL
 50 52 0 0 0
SMALL
GASTEIGER

@<TRIPOS>ATOM
      1  C          9.6040    1.1790   25.5430 C.ar    1  UNL1        0.0000
      2  C          9.1430    1.0230   26.8550 C.ar    1  UNL1        0.0000
      3 CL          8.3440   -0.3950   27.4420 Cl      1  UNL1        0.0000
      4  C          9.2790    2.0710   27.7870 C.ar    1  UNL1        0.0000
      5  C          9.8520    3.2960   27.4300 C.ar    1  UNL1        0.0000
      6  F          9.9750    4.2360   28.3780 F       1  UNL1        0.0000
      7  C         10.2790    3.5280   26.1330 C.ar    1  UNL1        0.0000
      8  C         10.1470    2.4590   25.2000 C.ar    1  UNL1        0.0000
      9  H          8.9480    1.9320   28.7550 H       1  UNL1        0.0000
     10  H         10.4570    2.6150   24.2290 H       1  UNL1        0.0000
     11  O          8.6450   -0.6800   24.4590 O.2     1  UNL1        0.0000
     12  C          9.5840    0.1160   24.4470 C.2     1  UNL1        0.0000
     13  N         10.6200    0.0590   23.5170 N.am    1  UNL1        0.0000
     14  H         11.3100    0.7600   23.5700 H       1  UNL1        0.0000
     15  C         10.7720   -0.9270   22.4910 C.ar    1  UNL1        0.0000
     16  C         10.1170   -0.9340   21.2400 C.ar    1  UNL1        0.0000
     17  C         10.3370   -2.0110   20.3250 C.ar    1  UNL1        0.0000
     18  C         11.2010   -3.0560   20.6370 C.ar    1  UNL1        0.0000
     19  C         11.8950   -3.0020   21.8490 C.ar    1  UNL1        0.0000
     20  C         11.7010   -1.9470   22.7470 C.ar    1  UNL1        0.0000
     21  H          9.8470   -2.0120   19.4180 H       1  UNL1        0.0000
     22  H         12.5620   -3.7520   22.0860 H       1  UNL1        0.0000
     23  H         12.2540   -1.9180   23.6180 H       1  UNL1        0.0000
     24  C          9.2300    0.1860   20.7690 C.3     1  UNL1        0.0000
     25  H          9.1090    0.9010   21.5570 H       1  UNL1        0.0000
     26  H          8.2730   -0.2070   20.4950 H       1  UNL1        0.0000
     27  H          9.6750    0.6630   19.9220 H       1  UNL1        0.0000
     28  O         11.5170   -4.1470   19.8700 O.3     1  UNL1        0.0000
     29  C         12.3480   -3.9600   18.7430 C.3     1  UNL1        0.0000
     30  F         11.6080   -3.4430   17.7320 F       1  UNL1        0.0000
     31  F         13.2550   -3.0010   19.0820 F       1  UNL1        0.0000
     32  H         12.8030   -4.8830   18.4510 H       1  UNL1        0.0000
     33  C         10.8790    4.8390   25.6940 C.2     1  UNL1        0.0000
     34  N         10.0630    5.9010   25.2740 N.am    1  UNL1        0.0000
     35  O         12.1010    4.9520   25.7490 O.2     1  UNL1        0.0000
     36  H          9.1270    5.7430   25.0140 H       1  UNL1        0.0000
     37  C         10.6360    7.2460   25.2320 C.3     1  UNL1        0.0000
     38  H         10.1860    7.7510   24.4030 H       1  UNL1        0.0000
     39  H         11.6900    7.0670   25.1800 H       1  UNL1        0.0000
     40  C         10.4930    8.1640   26.4400 C.ar    1  UNL1        0.0000
     41  C          9.3340    8.9720   26.5340 C.ar    1  UNL1        0.0000
     42  C          8.9970    9.6450   27.7140 C.ar    1  UNL1        0.0000
     43  C          9.8180    9.5230   28.8240 C.ar    1  UNL1        0.0000
     44  F          9.4700   10.1160   29.9740 F       1  UNL1        0.0000
     45  C         10.9820    8.7610   28.7570 C.ar    1  UNL1        0.0000
     46  C         11.3190    8.0830   27.5720 C.ar    1  UNL1        0.0000
     47  H          8.7190    9.0650   25.7100 H       1  UNL1        0.0000
     48  H          8.1460   10.2260   27.7570 H       1  UNL1        0.0000
     49  H         11.5990    8.6940   29.5800 H       1  UNL1        0.0000
     50  H         12.1830    7.5200   27.5350 H       1  UNL1        0.0000
@<TRIPOS>BOND
     1     1    12    1
     2     1     8   ar
     3     1     2   ar
     4     2     3    1
     5     2     4   ar
     6     4     5   ar
     7     4     9    1
     8     5     7   ar
     9     5     6    1
    10     7     8   ar
    11     7    33    1
    12     8    10    1
    13    11    12    2
    14    12    13   am
    15    13    15    1
    16    13    14    1
    17    15    16   ar
    18    15    20   ar
    19    16    17   ar
    20    16    24    1
    21    17    21    1
    22    17    18   ar
    23    18    28    1
    24    18    19   ar
    25    19    22    1
    26    19    20   ar
    27    20    23    1
    28    24    27    1
    29    24    26    1
    30    24    25    1
    31    28    29    1
    32    29    30    1
    33    29    32    1
    34    29    31    1
    35    33    34   am
    36    33    35    2
    37    34    36    1
    38    34    37    1
    39    37    38    1
    40    37    39    1
    41    37    40    1
    42    40    41   ar
    43    40    46   ar
    44    41    47    1
    45    41    42   ar
    46    42    48    1
    47    42    43   ar
    48    43    45   ar
    49    43    44    1
    50    45    46   ar
    51    45    49    1
    52    46    50    1
