@<TRIPOS>MOLECULE
UNL
 53 55 0 0 0
SMALL
GASTEIGER

@<TRIPOS>ATOM
      1  C          9.9470    2.0500   26.4660 C.ar    1  UNL1        0.0000
      2  C          9.0950    1.4100   27.3750 C.ar    1  UNL1        0.0000
      3 CL          8.5860   -0.2350   27.2280 Cl      1  UNL1        0.0000
      4  C          8.5820    2.1170   28.4710 C.ar    1  UNL1        0.0000
      5  C          8.9160    3.4570   28.6690 C.ar    1  UNL1        0.0000
      6  F          8.3980    4.0830   29.7370 F       1  UNL1        0.0000
      7  C          9.7690    4.1180   27.7920 C.ar    1  UNL1        0.0000
      8  C         10.2720    3.4100   26.6890 C.ar    1  UNL1        0.0000
      9  H          7.9510    1.6440   29.1370 H       1  UNL1        0.0000
     10  H         10.8970    3.8930   26.0240 H       1  UNL1        0.0000
     11  O         11.7220    1.6690   25.0210 O.2     1  UNL1        0.0000
     12  C         10.5340    1.4380   25.2340 C.2     1  UNL1        0.0000
     13  N          9.7120    0.6660   24.4300 N.am    1  UNL1        0.0000
     14  H          8.7660    0.5980   24.6950 H       1  UNL1        0.0000
     15  C         10.1060   -0.0330   23.2640 C.ar    1  UNL1        0.0000
     16  C          9.6420    0.2930   21.9920 C.ar    1  UNL1        0.0000
     17  C         10.0220   -0.4540   20.8720 C.ar    1  UNL1        0.0000
     18  C         10.8910   -1.5480   20.9830 C.ar    1  UNL1        0.0000
     19  C         11.3720   -1.8590   22.2690 C.ar    1  UNL1        0.0000
     20  C         10.9980   -1.1010   23.3920 C.ar    1  UNL1        0.0000
     21  H          9.0080    1.0980   21.8730 H       1  UNL1        0.0000
     22  H          9.6550   -0.1950   19.9430 H       1  UNL1        0.0000
     23  H         12.0120   -2.6610   22.3890 H       1  UNL1        0.0000
     24  H         11.3850   -1.3360   24.3190 H       1  UNL1        0.0000
     25  C         11.2630   -2.3990   19.7710 C.3     1  UNL1        0.0000
     26  C         10.8660   -3.8780   19.9010 C.3     1  UNL1        0.0000
     27  H         10.8490   -4.1520   20.9360 H       1  UNL1        0.0000
     28  H         11.5780   -4.4860   19.3840 H       1  UNL1        0.0000
     29  H          9.8950   -4.0260   19.4780 H       1  UNL1        0.0000
     30  C         12.7660   -2.2990   19.4900 C.3     1  UNL1        0.0000
     31  H         13.0090   -1.2990   19.1970 H       1  UNL1        0.0000
     32  H         13.0270   -2.9740   18.7000 H       1  UNL1        0.0000
     33  H         13.3120   -2.5560   20.3730 H       1  UNL1        0.0000
     34  O         10.5780   -1.9070   18.6110 O.3     1  UNL1        0.0000
     35  H          9.7560   -2.4060   18.4850 H       1  UNL1        0.0000
     36  C         10.2150    5.5210   28.0150 C.2     1  UNL1        0.0000
     37  N         11.2580    5.9850   27.2460 N.am    1  UNL1        0.0000
     38  O          9.6370    6.2100   28.8530 O.2     1  UNL1        0.0000
     39  H         11.7030    5.3650   26.6250 H       1  UNL1        0.0000
     40  C         11.7250    7.3530   27.3210 C.3     1  UNL1        0.0000
     41  H         11.5050    7.7420   28.2940 H       1  UNL1        0.0000
     42  H         11.2260    7.9190   26.5620 H       1  UNL1        0.0000
     43  C         13.2100    7.4470   27.0800 C.ar    1  UNL1        0.0000
     44  C         13.9530    8.4970   27.6460 C.ar    1  UNL1        0.0000
     45  C         15.3400    8.5580   27.4840 C.ar    1  UNL1        0.0000
     46  C         15.9880    7.5660   26.7590 C.ar    1  UNL1        0.0000
     47  F         17.3210    7.6110   26.6290 F       1  UNL1        0.0000
     48  C         15.2630    6.5310   26.1830 C.ar    1  UNL1        0.0000
     49  F         15.8910    5.5750   25.4830 F       1  UNL1        0.0000
     50  C         13.8790    6.4650   26.3340 C.ar    1  UNL1        0.0000
     51  H         13.4700    9.2310   28.1880 H       1  UNL1        0.0000
     52  H         15.8780    9.3340   27.8990 H       1  UNL1        0.0000
     53  H         13.3490    5.6950   25.8980 H       1  UNL1        0.0000
@<TRIPOS>BOND
     1     1    12    1
     2     1     8   ar
     3     1     2   ar
     4     2     3    1
     5     2     4   ar
     6     4     5   ar
     7     4     9    1
     8     5     7   ar
     9     5     6    1
    10     7     8   ar
    11     7    36    1
    12     8    10    1
    13    11    12    2
    14    12    13   am
    15    13    15    1
    16    13    14    1
    17    15    16   ar
    18    15    20   ar
    19    16    17   ar
    20    16    21    1
    21    17    22    1
    22    17    18   ar
    23    18    25    1
    24    18    19   ar
    25    19    23    1
    26    19    20   ar
    27    20    24    1
    28    25    34    1
    29    25    30    1
    30    25    26    1
    31    26    28    1
    32    26    29    1
    33    26    27    1
    34    30    32    1
    35    30    31    1
    36    30    33    1
    37    34    35    1
    38    36    37   am
    39    36    38    2
    40    37    39    1
    41    37    40    1
    42    40    42    1
    43    40    43    1
    44    40    41    1
    45    43    50   ar
    46    43    44   ar
    47    44    45   ar
    48    44    51    1
    49    45    46   ar
    50    45    52    1
    51    46    48   ar
    52    46    47    1
    53    48    49    1
    54    48    50   ar
    55    50    53    1
