@<TRIPOS>MOLECULE
UNL
 74 78 0 0 0
SMALL
GASTEIGER

@<TRIPOS>ATOM
      1  C          9.0460    5.3670   26.2260 C.ar    1  UNL1        0.0000
      2  C          9.5390    4.6570   27.3200 C.ar    1  UNL1        0.0000
      3  C          9.8850    3.3140   27.1490 C.ar    1  UNL1        0.0000
      4  C          9.7440    2.6460   25.9390 C.ar    1  UNL1        0.0000
      5  N         10.1220    1.3670   25.8980 N.ar    1  UNL1        0.0000
      6  C         10.0140    0.7060   24.7230 C.ar    1  UNL1        0.0000
      7  C          9.4990    1.2570   23.5650 C.ar    1  UNL1        0.0000
      8  C          9.0210    2.5800   23.6120 C.ar    1  UNL1        0.0000
      9  C          9.2070    3.3320   24.8260 C.ar    1  UNL1        0.0000
     10  C          8.8820    4.7040   24.9990 C.ar    1  UNL1        0.0000
     11  H         10.2630    2.7960   27.9580 H       1  UNL1        0.0000
     12  H         10.3380   -0.2750   24.6890 H       1  UNL1        0.0000
     13  H          8.5110    5.2320   24.1940 H       1  UNL1        0.0000
     14  C          9.2310    7.8640   26.3460 C.2     1  UNL1        0.0000
     15  N          8.5520    6.6740   26.3540 N.am    1  UNL1        0.0000
     16  O          8.6090    8.9190   26.4580 O.2     1  UNL1        0.0000
     17  H          7.5760    6.7460   26.4660 H       1  UNL1        0.0000
     18  C         11.3760    7.3840   25.2310 C.2     1  UNL1        0.0000
     19  C         10.7140    7.8400   26.3090 C.2     1  UNL1        0.0000
     20  H         10.8220    7.1190   24.4020 H       1  UNL1        0.0000
     21  H         11.2470    8.1800   27.1250 H       1  UNL1        0.0000
     22  N         13.3050    5.9520   24.5790 N.4     1  UNL1        0.0000
     23  C         12.8700    7.2370   25.1530 C.3     1  UNL1        0.0000
     24  C         13.5450    7.2460   26.5300 C.3     1  UNL1        0.0000
     25  C         14.7410    6.3050   26.3990 C.3     1  UNL1        0.0000
     26  C         14.7120    5.8190   24.9590 C.3     1  UNL1        0.0000
     27  H         12.7400    5.1800   24.9330 H       1  UNL1        0.0000
     28  H         13.1520    8.0710   24.5450 H       1  UNL1        0.0000
     29  H         12.8700    6.8920   27.2810 H       1  UNL1        0.0000
     30  H         13.8420    8.2320   26.8230 H       1  UNL1        0.0000
     31  H         14.6450    5.4820   27.0740 H       1  UNL1        0.0000
     32  H         15.6610    6.7960   26.6350 H       1  UNL1        0.0000
     33  H         15.3350    6.4280   24.3370 H       1  UNL1        0.0000
     34  H         15.0810    4.8210   24.8500 H       1  UNL1        0.0000
     35  C         13.1350    5.9070   23.1300 C.3     1  UNL1        0.0000
     36  H         14.0100    5.4830   22.6810 H       1  UNL1        0.0000
     37  H         12.9890    6.8990   22.7560 H       1  UNL1        0.0000
     38  H         12.2850    5.3050   22.8880 H       1  UNL1        0.0000
     39  C          9.5900    0.4600   22.3790 C.1     1  UNL1        0.0000
     40  N          9.6330   -0.1420   21.3850 N.1     1  UNL1        0.0000
     41  N          8.3290    3.1840   22.5300 N.pl3   1  UNL1        0.0000
     42  H          7.3570    3.0320   22.5400 H       1  UNL1        0.0000
     43  C          8.7770    3.9590   21.4440 C.ar    1  UNL1        0.0000
     44  C          8.3470    3.7620   20.1300 C.ar    1  UNL1        0.0000
     45  C          8.9190    4.4850   19.0760 C.ar    1  UNL1        0.0000
     46 CL          8.3600    4.1610   17.4710 Cl      1  UNL1        0.0000
     47  C          9.9150    5.4390   19.3220 C.ar    1  UNL1        0.0000
     48  C         10.3370    5.6430   20.6390 C.ar    1  UNL1        0.0000
     49  C          9.7640    4.9190   21.6870 C.ar    1  UNL1        0.0000
     50  H          7.5990    3.0780   19.9330 H       1  UNL1        0.0000
     51  H         11.0780    6.3340   20.8390 H       1  UNL1        0.0000
     52  H         10.0750    5.0950   22.6550 H       1  UNL1        0.0000
     53  O         10.4270    6.1140   18.2430 O.3     1  UNL1        0.0000
     54  C         11.6950    5.6570   17.7650 C.3     1  UNL1        0.0000
     55  H         11.6970    4.5870   17.7550 H       1  UNL1        0.0000
     56  H         12.4550    6.0320   18.4180 H       1  UNL1        0.0000
     57  C         11.9740    6.1610   16.3720 C.ar    1  UNL1        0.0000
     58  N         12.2260    7.4910   16.2540 N.ar    1  UNL1        0.0000
     59  C         12.5010    7.9690   15.0250 C.ar    1  UNL1        0.0000
     60  C         12.5560    7.1800   13.8910 C.ar    1  UNL1        0.0000
     61  C         12.3160    5.8180   14.0240 C.ar    1  UNL1        0.0000
     62  C         12.0250    5.2950   15.2810 C.ar    1  UNL1        0.0000
     63  H         12.6800    8.9800   14.9240 H       1  UNL1        0.0000
     64  H         12.7710    7.5920   12.9690 H       1  UNL1        0.0000
     65  H         12.3530    5.1990   13.1990 H       1  UNL1        0.0000
     66  H         11.8500    4.2850   15.4030 H       1  UNL1        0.0000
     67  O          9.7400    5.1140   28.5950 O.3     1  UNL1        0.0000
     68  C          8.6270    5.1500   29.4870 C.3     1  UNL1        0.0000
     69  H          8.8230    4.5290   30.3370 H       1  UNL1        0.0000
     70  H          7.7480    4.7910   28.9940 H       1  UNL1        0.0000
     71  C          8.4210    6.5850   29.9400 C.3     1  UNL1        0.0000
     72  H          9.3030    6.9320   30.4370 H       1  UNL1        0.0000
     73  H          7.5910    6.6310   30.6130 H       1  UNL1        0.0000
     74  H          8.2250    7.2020   29.0880 H       1  UNL1        0.0000
@<TRIPOS>BOND
     1     1    10   ar
     2     1    15    1
     3     1     2   ar
     4     2     3   ar
     5     2    67    1
     6     3     4   ar
     7     3    11    1
     8     4     9   ar
     9     4     5   ar
    10     5     6   ar
    11     6     7   ar
    12     6    12    1
    13     7    39    1
    14     7     8   ar
    15     8    41    1
    16     8     9   ar
    17     9    10   ar
    18    10    13    1
    19    14    19    1
    20    14    15   am
    21    14    16    2
    22    15    17    1
    23    18    20    1
    24    18    23    1
    25    18    19    2
    26    19    21    1
    27    22    35    1
    28    22    27    1
    29    22    26    1
    30    22    23    1
    31    23    28    1
    32    23    24    1
    33    24    25    1
    34    24    30    1
    35    24    29    1
    36    25    26    1
    37    25    32    1
    38    25    31    1
    39    26    33    1
    40    26    34    1
    41    35    36    1
    42    35    37    1
    43    35    38    1
    44    39    40    3
    45    41    43    1
    46    41    42    1
    47    43    44   ar
    48    43    49   ar
    49    44    45   ar
    50    44    50    1
    51    45    46    1
    52    45    47   ar
    53    47    53    1
    54    47    48   ar
    55    48    51    1
    56    48    49   ar
    57    49    52    1
    58    53    54    1
    59    54    57    1
    60    54    55    1
    61    54    56    1
    62    57    62   ar
    63    57    58   ar
    64    58    59   ar
    65    59    60   ar
    66    59    63    1
    67    60    64    1
    68    60    61   ar
    69    61    65    1
    70    61    62   ar
    71    62    66    1
    72    67    68    1
    73    68    70    1
    74    68    71    1
    75    68    69    1
    76    71    74    1
    77    71    72    1
    78    71    73    1
