@<TRIPOS>MOLECULE
UNL
 53 55 0 0 0
SMALL
GASTEIGER

@<TRIPOS>ATOM
      1  F          8.1900    2.9150   29.9260 F       1  UNL1        0.0000
      2  C          8.6810    2.6490   28.7060 C.ar    1  UNL1        0.0000
      3  C          9.0040    1.3750   28.3410 C.ar    1  UNL1        0.0000
      4  N          9.4610    1.0720   27.1190 N.ar    1  UNL1        0.0000
      5  C          9.6060    2.0770   26.2330 C.ar    1  UNL1        0.0000
      6  N          9.9770    1.7570   24.9230 N.pl3   1  UNL1        0.0000
      7  N          9.3890    3.3650   26.5330 N.ar    1  UNL1        0.0000
      8  C          8.8990    3.6420   27.7660 C.ar    1  UNL1        0.0000
      9  N          8.5880    4.9680   28.1400 N.pl3   1  UNL1        0.0000
     10  H          8.8920    0.6160   29.0320 H       1  UNL1        0.0000
     11  H         10.4970    2.4290   24.4240 H       1  UNL1        0.0000
     12  H          7.8830    5.0560   28.8220 H       1  UNL1        0.0000
     13  C          9.6690    0.5560   24.2590 C.ar    1  UNL1        0.0000
     14  C          8.4170   -0.0600   24.3910 C.ar    1  UNL1        0.0000
     15  C          8.1630   -1.3240   23.8520 C.ar    1  UNL1        0.0000
     16  C          9.1620   -1.9960   23.1550 C.ar    1  UNL1        0.0000
     17  C         10.3920   -1.3610   22.9570 C.ar    1  UNL1        0.0000
     18  C         10.6390   -0.0880   23.4880 C.ar    1  UNL1        0.0000
     19  H          7.6640    0.4300   24.8990 H       1  UNL1        0.0000
     20  H          7.2340   -1.7590   23.9700 H       1  UNL1        0.0000
     21  H         11.1270   -1.8360   22.4110 H       1  UNL1        0.0000
     22  H         11.5440    0.3760   23.3100 H       1  UNL1        0.0000
     23  O          9.0600   -3.2590   22.6380 O.3     1  UNL1        0.0000
     24  C         10.1210   -3.6780   21.7770 C.3     1  UNL1        0.0000
     25  H         11.0630   -3.4540   22.2320 H       1  UNL1        0.0000
     26  H         10.0500   -3.1640   20.8410 H       1  UNL1        0.0000
     27  C         10.0120   -5.1810   21.5440 C.3     1  UNL1        0.0000
     28  H         10.1940   -5.3980   20.5130 H       1  UNL1        0.0000
     29  H          9.0300   -5.5160   21.8070 H       1  UNL1        0.0000
     30  O         10.9800   -5.8510   22.3530 O.3     1  UNL1        0.0000
     31  C         12.1920   -6.0720   21.6440 C.3     1  UNL1        0.0000
     32  H         12.2440   -7.0960   21.3370 H       1  UNL1        0.0000
     33  H         13.0230   -5.8480   22.2800 H       1  UNL1        0.0000
     34  H         12.2210   -5.4390   20.7820 H       1  UNL1        0.0000
     35  C          9.1350    6.1780   27.6860 C.ar    1  UNL1        0.0000
     36  C         10.4810    6.4620   27.9690 C.ar    1  UNL1        0.0000
     37  C         11.1190    7.5870   27.4390 C.ar    1  UNL1        0.0000
     38  C         10.3750    8.4690   26.6460 C.ar    1  UNL1        0.0000
     39  C          9.0350    8.2040   26.3590 C.ar    1  UNL1        0.0000
     40  C          8.4240    7.0570   26.8680 C.ar    1  UNL1        0.0000
     41  H         11.0120    5.8240   28.5820 H       1  UNL1        0.0000
     42  H         10.8200    9.3200   26.2700 H       1  UNL1        0.0000
     43  H          8.4950    8.8570   25.7710 H       1  UNL1        0.0000
     44  H          7.4370    6.8580   26.6380 H       1  UNL1        0.0000
     45  N         12.4940    7.8640   27.6170 N.am    1  UNL1        0.0000
     46  C         13.5450    7.3230   26.9000 C.2     1  UNL1        0.0000
     47  O         13.4870    6.4440   26.0500 O.2     1  UNL1        0.0000
     48  H         12.7270    8.5080   28.3230 H       1  UNL1        0.0000
     49  C         14.8520    7.9530   27.2500 C.2     1  UNL1        0.0000
     50  C         14.8840    9.0440   28.0270 C.2     1  UNL1        0.0000
     51  H         15.7310    7.5470   26.8920 H       1  UNL1        0.0000
     52  H         14.0050    9.4490   28.3840 H       1  UNL1        0.0000
     53  H         15.7890    9.4780   28.2690 H       1  UNL1        0.0000
@<TRIPOS>BOND
     1     1     2    1
     2     2     8   ar
     3     2     3   ar
     4     3     4   ar
     5     3    10    1
     6     4     5   ar
     7     5     6    1
     8     5     7   ar
     9     6    13    1
    10     6    11    1
    11     7     8   ar
    12     8     9    1
    13     9    35    1
    14     9    12    1
    15    13    18   ar
    16    13    14   ar
    17    14    15   ar
    18    14    19    1
    19    15    16   ar
    20    15    20    1
    21    16    23    1
    22    16    17   ar
    23    17    21    1
    24    17    18   ar
    25    18    22    1
    26    23    24    1
    27    24    26    1
    28    24    27    1
    29    24    25    1
    30    27    28    1
    31    27    29    1
    32    27    30    1
    33    30    31    1
    34    31    34    1
    35    31    32    1
    36    31    33    1
    37    35    40   ar
    38    35    36   ar
    39    36    37   ar
    40    36    41    1
    41    37    38   ar
    42    37    45    1
    43    38    42    1
    44    38    39   ar
    45    39    43    1
    46    39    40   ar
    47    40    44    1
    48    45    46   am
    49    45    48    1
    50    46    47    2
    51    46    49    1
    52    49    51    1
    53    49    50    2
    54    50    53    1
    55    50    52    1
