@<TRIPOS>MOLECULE
UNL
 64 67 0 0 0
SMALL
GASTEIGER

@<TRIPOS>ATOM
      1  C         10.6330    5.2140   24.3980 C.ar    1  UNL1        0.0000
      2  C         10.0850    6.0530   25.4000 C.ar    1  UNL1        0.0000
      3  C         10.4340    7.4420   25.4490 C.ar    1  UNL1        0.0000
      4  C         11.3480    7.9030   24.4830 C.ar    1  UNL1        0.0000
      5  C         11.9500    7.0400   23.5770 C.ar    1  UNL1        0.0000
      6  F         12.8480    7.5270   22.7100 F       1  UNL1        0.0000
      7  C         11.6120    5.6980   23.5300 C.ar    1  UNL1        0.0000
      8  H         11.5780    8.9080   24.4480 H       1  UNL1        0.0000
      9  H         12.0780    5.0660   22.8610 H       1  UNL1        0.0000
     10  C          9.8230    8.4070   26.4150 C.ar    1  UNL1        0.0000
     11  N          8.6170    8.8710   26.0110 N.ar    1  UNL1        0.0000
     12  C          8.0280    9.7850   26.7770 C.ar    1  UNL1        0.0000
     13  N          8.5450   10.3260   27.8800 N.ar    1  UNL1        0.0000
     14  C          9.7490    9.8730   28.2690 C.ar    1  UNL1        0.0000
     15  C         10.4420    8.8560   27.6040 C.ar    1  UNL1        0.0000
     16  H          7.0880   10.1030   26.4920 H       1  UNL1        0.0000
     17  N         10.2070   10.5570   29.3950 N.pl3   1  UNL1        0.0000
     18  H          9.5980   10.7300   30.1480 H       1  UNL1        0.0000
     19  H         11.1410   10.8670   29.4350 H       1  UNL1        0.0000
     20  O         11.6340    8.2710   27.9320 O.3     1  UNL1        0.0000
     21  C         12.8710    8.9150   27.6120 C.3     1  UNL1        0.0000
     22  H         12.8900    9.8890   28.0520 H       1  UNL1        0.0000
     23  H         12.9620    8.9980   26.5490 H       1  UNL1        0.0000
     24  C         14.0450    8.0830   28.1600 C.3     1  UNL1        0.0000
     25  H         13.6420    7.2740   28.7330 H       1  UNL1        0.0000
     26  H         14.6440    8.7510   28.7440 H       1  UNL1        0.0000
     27  N         14.9260    7.5230   27.1310 N.am    1  UNL1        0.0000
     28  C         14.4960    6.4170   26.4030 C.2     1  UNL1        0.0000
     29  O         13.4060    5.8820   26.5850 O.2     1  UNL1        0.0000
     30  C         15.4290    5.9120   25.3600 C.2     1  UNL1        0.0000
     31  C         14.9790    5.1990   24.3210 C.2     1  UNL1        0.0000
     32  H         16.4380    6.1150   25.4400 H       1  UNL1        0.0000
     33  H         13.9710    4.9930   24.2340 H       1  UNL1        0.0000
     34  H         15.6390    4.8560   23.6060 H       1  UNL1        0.0000
     35  C         16.1760    8.2260   26.8700 C.3     1  UNL1        0.0000
     36  H         15.9840    9.2750   26.7890 H       1  UNL1        0.0000
     37  H         16.6010    7.8690   25.9550 H       1  UNL1        0.0000
     38  H         16.8580    8.0490   27.6740 H       1  UNL1        0.0000
     39  C         10.8130    2.7500   24.1480 C.2     1  UNL1        0.0000
     40  N         10.0940    3.9240   24.2020 N.am    1  UNL1        0.0000
     41  O         11.9760    2.6300   24.5310 O.2     1  UNL1        0.0000
     42  H          9.1180    3.8580   24.0950 H       1  UNL1        0.0000
     43  F          9.1450    2.7410   21.7780 F       1  UNL1        0.0000
     44  C          9.3850    1.5840   22.4140 C.ar    1  UNL1        0.0000
     45  C         10.1120    1.5540   23.6030 C.ar    1  UNL1        0.0000
     46  C         10.2930    0.3210   24.2400 C.ar    1  UNL1        0.0000
     47  C          9.8240   -0.8590   23.6490 C.ar    1  UNL1        0.0000
     48  C          9.1670   -0.8460   22.4080 C.ar    1  UNL1        0.0000
     49  C          8.9230    0.4060   21.8220 C.ar    1  UNL1        0.0000
     50  H         10.7760    0.2820   25.1510 H       1  UNL1        0.0000
     51  H          9.9640   -1.7580   24.1370 H       1  UNL1        0.0000
     52  H          8.3930    0.4570   20.9380 H       1  UNL1        0.0000
     53  C          8.8360   -2.1240   21.6770 C.3     1  UNL1        0.0000
     54  C          9.1430   -3.4660   22.2930 C.3     1  UNL1        0.0000
     55  C          9.9220   -2.9980   21.0980 C.3     1  UNL1        0.0000
     56  H          7.9610   -1.6480   21.2860 H       1  UNL1        0.0000
     57  H          8.4460   -4.2720   22.1950 H       1  UNL1        0.0000
     58  H          9.3990   -3.8060   23.2760 H       1  UNL1        0.0000
     59  H         10.9490   -2.7170   21.2050 H       1  UNL1        0.0000
     60  H         10.1330   -3.3990   20.1290 H       1  UNL1        0.0000
     61  C          9.1980    5.4440   26.4680 C.3     1  UNL1        0.0000
     62  H          9.7040    4.6190   26.9240 H       1  UNL1        0.0000
     63  H          8.2870    5.1020   26.0220 H       1  UNL1        0.0000
     64  H          8.9760    6.1820   27.2100 H       1  UNL1        0.0000
@<TRIPOS>BOND
     1     1     7   ar
     2     1    40    1
     3     1     2   ar
     4     2     3   ar
     5     2    61    1
     6     3     4   ar
     7     3    10    1
     8     4     5   ar
     9     4     8    1
    10     5     6    1
    11     5     7   ar
    12     7     9    1
    13    10    11   ar
    14    10    15   ar
    15    11    12   ar
    16    12    16    1
    17    12    13   ar
    18    13    14   ar
    19    14    15   ar
    20    14    17    1
    21    15    20    1
    22    17    19    1
    23    17    18    1
    24    20    21    1
    25    21    23    1
    26    21    22    1
    27    21    24    1
    28    24    27    1
    29    24    25    1
    30    24    26    1
    31    27    28   am
    32    27    35    1
    33    28    30    1
    34    28    29    2
    35    30    31    2
    36    30    32    1
    37    31    34    1
    38    31    33    1
    39    35    37    1
    40    35    36    1
    41    35    38    1
    42    39    45    1
    43    39    40   am
    44    39    41    2
    45    40    42    1
    46    43    44    1
    47    44    49   ar
    48    44    45   ar
    49    45    46   ar
    50    46    47   ar
    51    46    50    1
    52    47    48   ar
    53    47    51    1
    54    48    53    1
    55    48    49   ar
    56    49    52    1
    57    53    55    1
    58    53    56    1
    59    53    54    1
    60    54    55    1
    61    54    57    1
    62    54    58    1
    63    55    60    1
    64    55    59    1
    65    61    63    1
    66    61    62    1
    67    61    64    1
