@<TRIPOS>MOLECULE
UNL
 56 59 0 0 0
SMALL
GASTEIGER

@<TRIPOS>ATOM
      1  C          9.1480    3.3720   22.0540 C.ar    1  UNL1        0.1633
      2  C          9.7470    4.4270   21.3350 C.ar    1  UNL1        0.0053
      3  C         10.7360    5.2460   21.8700 C.ar    1  UNL1        0.0425
      4  C         11.2600    4.9170   23.1200 C.ar    1  UNL1        0.0193
      5  C         12.2380    5.7950   23.6320 C.3     1  UNL1        0.1425
      6  N         12.9000    5.4350   24.8300 N.pl3   1  UNL1       -0.3168
      7  N         12.5740    6.9340   23.0110 N.2     1  UNL1       -0.2493
      8  C         11.9830    7.1580   21.8300 C.2     1  UNL1        0.0825
      9  N         11.1150    6.3460   21.2100 N.pl3   1  UNL1       -0.3053
     10  C         10.7080    3.8250   23.8310 C.ar    1  UNL1       -0.0077
     11  C          9.5810    3.1280   23.3620 C.ar    1  UNL1        0.1628
     12  H          9.4360    4.6000   20.3660 H       1  UNL1        0.0674
     13  H         12.9720    4.4660   24.9870 H       1  UNL1        0.1485
     14  H         12.2200    8.0410   21.3500 H       1  UNL1        0.0997
     15  H         11.1460    3.5330   24.7180 H       1  UNL1        0.0660
     16  C         13.4720    6.2400   25.8370 C.ar    1  UNL1        0.0661
     17  C         14.8520    6.3730   26.0060 C.ar    1  UNL1       -0.0365
     18  C         15.3710    7.3320   26.8860 C.ar    1  UNL1       -0.0400
     19  C         14.5160    8.1680   27.6130 C.ar    1  UNL1        0.0622
     20 CL         15.2350    9.3630   28.6340 Cl      1  UNL1       -0.0819
     21  C         13.1340    8.0350   27.4760 C.ar    1  UNL1        0.0962
     22 CL         12.0180    9.0340   28.3410 Cl      1  UNL1       -0.0790
     23  C         12.6310    7.0820   26.5880 C.ar    1  UNL1        0.1638
     24  F         11.3020    6.9620   26.4130 F       1  UNL1       -0.2020
     25  H         15.4950    5.7620   25.4790 H       1  UNL1        0.0637
     26  H         16.3930    7.4220   26.9990 H       1  UNL1        0.0633
     27  O          7.9830    2.9420   21.4710 O.3     1  UNL1       -0.4914
     28  C          7.9830    1.7250   20.7380 C.3     1  UNL1        0.0790
     29  H          7.2670    1.7860   19.9450 H       1  UNL1        0.0660
     30  H          7.7280    0.9170   21.3900 H       1  UNL1        0.0660
     31  H          8.9560    1.5570   20.3260 H       1  UNL1        0.0660
     32  O          9.0060    2.4260   24.3930 O.3     1  UNL1       -0.4850
     33  C          9.6040    1.2310   24.8860 C.3     1  UNL1        0.1032
     34  C         10.8130    0.7460   24.0750 C.3     1  UNL1        0.0001
     35  C         10.4340    0.0100   22.8150 C.3     1  UNL1        0.0183
     36  N          9.5730   -1.1150   23.1150 N.am    1  UNL1       -0.2978
     37  C          9.8950   -2.3330   22.5390 C.2     1  UNL1        0.2389
     38  O         10.9900   -2.5700   22.0110 O.2     1  UNL1       -0.2706
     39  C          8.3260   -0.7620   23.7910 C.3     1  UNL1        0.0183
     40  C          8.5330    0.1330   25.0150 C.3     1  UNL1        0.0001
     41  H         10.0030    1.4630   25.8510 H       1  UNL1        0.0734
     42  H         11.3930    0.0910   24.6910 H       1  UNL1        0.0316
     43  H         11.3630    1.6160   23.7790 H       1  UNL1        0.0316
     44  H         11.3230   -0.3470   22.3370 H       1  UNL1        0.0466
     45  H          9.9080    0.6820   22.1710 H       1  UNL1        0.0466
     46  H          7.8430   -1.6630   24.1060 H       1  UNL1        0.0466
     47  H          7.7330   -0.2100   23.0910 H       1  UNL1        0.0466
     48  H          7.6000    0.6100   25.2310 H       1  UNL1        0.0316
     49  H          8.8850   -0.5200   25.7870 H       1  UNL1        0.0316
     50  C          8.8200   -3.3670   22.5070 C.2     1  UNL1       -0.0067
     51  C          9.0700   -4.5630   21.9660 C.2     1  UNL1       -0.0938
     52  H          7.8880   -3.1590   22.8980 H       1  UNL1        0.0663
     53  H         10.0030   -4.7690   21.5750 H       1  UNL1        0.0536
     54  H          8.3300   -5.2830   21.9410 H       1  UNL1        0.0536
     55 H          11.5971    6.4817   23.1195 H       1  UNL1        0.0805
     56 H          10.7721    6.5500   20.3100 H       1  UNL1        0.1530
@<TRIPOS>BOND
     1     1     2   ar
     2     1    27    1
     3     1    11   ar
     4     2    12    1
     5     2     3   ar
     6     3     9    1
     7     3     4   ar
     8     4     5    1
     9     4    10   ar
    10     5     7    1
    11     5     6    1
    12     5    55    1
    13     6    13    1
    14     6    16    1
    15     7     8    2
    16     8     9    1
    17     8    14    1
    18     9    56    1
    19    10    11   ar
    20    10    15    1
    21    11    32    1
    22    16    17   ar
    23    16    23   ar
    24    17    25    1
    25    17    18   ar
    26    18    26    1
    27    18    19   ar
    28    19    21   ar
    29    19    20    1
    30    21    23   ar
    31    21    22    1
    32    23    24    1
    33    27    28    1
    34    28    29    1
    35    28    31    1
    36    28    30    1
    37    32    33    1
    38    33    34    1
    39    33    40    1
    40    33    41    1
    41    34    35    1
    42    34    43    1
    43    34    42    1
    44    35    45    1
    45    35    44    1
    46    35    36    1
    47    36    37   am
    48    36    39    1
    49    37    38    2
    50    37    50    1
    51    39    47    1
    52    39    46    1
    53    39    40    1
    54    40    48    1
    55    40    49    1
    56    50    51    2
    57    50    52    1
    58    51    53    1
    59    51    54    1
