@<TRIPOS>MOLECULE
UNL
 59 62 0 0 0
SMALL
GASTEIGER

@<TRIPOS>ATOM
      1  C         12.9140    5.1140   24.0470 C.ar    1  UNL1        0.0000
      2  N         13.4100    6.3600   24.0630 N.ar    1  UNL1        0.0000
      3  C         12.5450    7.3350   24.3290 C.ar    1  UNL1        0.0000
      4  N         11.2510    7.1740   24.6070 N.ar    1  UNL1        0.0000
      5  C         10.7630    5.9180   24.5800 C.ar    1  UNL1        0.0000
      6  N          9.4050    5.7720   24.9000 N.pl3   1  UNL1        0.0000
      7  C         11.5650    4.7940   24.2770 C.ar    1  UNL1        0.0000
      8  H         12.9070    8.3000   24.3180 H       1  UNL1        0.0000
      9  H          9.0420    4.8880   25.1380 H       1  UNL1        0.0000
     10  C         11.0270    3.3980   24.1200 C.ar    1  UNL1        0.0000
     11  C         10.2940    2.9910   22.9940 C.ar    1  UNL1        0.0000
     12  C          9.9150    1.6600   22.7910 C.ar    1  UNL1        0.0000
     13  C         11.2740    2.3980   25.0870 C.ar    1  UNL1        0.0000
     14  C         10.8130    1.0810   24.9340 C.ar    1  UNL1        0.0000
     15  C         10.1300    0.7070   23.7830 C.ar    1  UNL1        0.0000
     16  H         10.0270    3.6980   22.2930 H       1  UNL1        0.0000
     17  H          9.4720    1.3840   21.9010 H       1  UNL1        0.0000
     18  H         11.8130    2.6430   25.9320 H       1  UNL1        0.0000
     19  H         10.9810    0.3880   25.6790 H       1  UNL1        0.0000
     20  O          9.7490   -0.6130   23.6890 O.3     1  UNL1        0.0000
     21  C         10.2410   -1.3770   22.6550 C.ar    1  UNL1        0.0000
     22  C         11.5390   -1.8700   22.7950 C.ar    1  UNL1        0.0000
     23  C         12.1080   -2.6360   21.7760 C.ar    1  UNL1        0.0000
     24  C         11.3780   -2.9100   20.6180 C.ar    1  UNL1        0.0000
     25  C         10.0680   -2.4490   20.4930 C.ar    1  UNL1        0.0000
     26  C          9.4890   -1.7100   21.5230 C.ar    1  UNL1        0.0000
     27  H         12.0780   -1.6680   23.6520 H       1  UNL1        0.0000
     28  H         13.0680   -3.0000   21.8780 H       1  UNL1        0.0000
     29  H         11.8090   -3.4540   19.8540 H       1  UNL1        0.0000
     30  H          9.5280   -2.6550   19.6380 H       1  UNL1        0.0000
     31  H          8.5050   -1.4080   21.4500 H       1  UNL1        0.0000
     32  N         13.8850    4.1560   23.7360 N.pl3   1  UNL1        0.0000
     33  H         13.7580    3.2190   24.0090 H       1  UNL1        0.0000
     34  H         14.6970    4.4190   23.2450 H       1  UNL1        0.0000
     35  C          8.5380    6.9450   24.8770 C.3     1  UNL1        0.0000
     36  H          7.6930    6.7390   24.2540 H       1  UNL1        0.0000
     37  H          9.1050    7.7690   24.4980 H       1  UNL1        0.0000
     38  C          8.0360    7.3200   26.2900 C.3     1  UNL1        0.0000
     39  C          8.2160    8.8380   26.5310 C.3     1  UNL1        0.0000
     40  C          9.6540    9.1890   26.9040 C.3     1  UNL1        0.0000
     41  N         10.0260    8.4270   28.0890 N.am    1  UNL1        0.0000
     42  C          9.9590    8.8680   29.4080 C.2     1  UNL1        0.0000
     43  O         10.1530    8.1210   30.3670 O.2     1  UNL1        0.0000
     44  C         10.0730    6.9870   27.8420 C.3     1  UNL1        0.0000
     45  C          8.6850    6.4890   27.4240 C.3     1  UNL1        0.0000
     46  H          6.9950    7.0770   26.3210 H       1  UNL1        0.0000
     47  H          7.5690    9.1410   27.3280 H       1  UNL1        0.0000
     48  H          7.9750    9.3490   25.6230 H       1  UNL1        0.0000
     49  H          9.7280   10.2370   27.1100 H       1  UNL1        0.0000
     50  H         10.3110    8.9480   26.0940 H       1  UNL1        0.0000
     51  H         10.3770    6.4830   28.7350 H       1  UNL1        0.0000
     52  H         10.7730    6.7850   27.0590 H       1  UNL1        0.0000
     53  H          8.7770    5.4770   27.0890 H       1  UNL1        0.0000
     54  H          8.0500    6.5820   28.2800 H       1  UNL1        0.0000
     55  C          9.6210   10.3030   29.6530 C.2     1  UNL1        0.0000
     56  C         10.3730   11.2880   29.1480 C.2     1  UNL1        0.0000
     57  H          8.7940   10.5380   30.2230 H       1  UNL1        0.0000
     58  H         11.2040   11.0630   28.5770 H       1  UNL1        0.0000
     59  H         10.1230   12.2730   29.3300 H       1  UNL1        0.0000
@<TRIPOS>BOND
     1     1    32    1
     2     1     2   ar
     3     1     7   ar
     4     2     3   ar
     5     3     8    1
     6     3     4   ar
     7     4     5   ar
     8     5     7   ar
     9     5     6    1
    10     6    35    1
    11     6     9    1
    12     7    10    1
    13    10    11   ar
    14    10    13   ar
    15    11    16    1
    16    11    12   ar
    17    12    17    1
    18    12    15   ar
    19    13    14   ar
    20    13    18    1
    21    14    15   ar
    22    14    19    1
    23    15    20    1
    24    20    21    1
    25    21    26   ar
    26    21    22   ar
    27    22    23   ar
    28    22    27    1
    29    23    24   ar
    30    23    28    1
    31    24    29    1
    32    24    25   ar
    33    25    30    1
    34    25    26   ar
    35    26    31    1
    36    32    34    1
    37    32    33    1
    38    35    36    1
    39    35    37    1
    40    35    38    1
    41    38    46    1
    42    38    39    1
    43    38    45    1
    44    39    48    1
    45    39    40    1
    46    39    47    1
    47    40    50    1
    48    40    49    1
    49    40    41    1
    50    41    44    1
    51    41    42   am
    52    42    55    1
    53    42    43    2
    54    44    52    1
    55    44    45    1
    56    44    51    1
    57    45    53    1
    58    45    54    1
    59    55    56    2
    60    55    57    1
    61    56    58    1
    62    56    59    1
