@<TRIPOS>MOLECULE
UNL
 93 99 0 0 0
SMALL
GASTEIGER

@<TRIPOS>ATOM
      1  C          8.3380    5.5340   22.1290 C.3     1  UNL1        0.0704
      2  C          8.0640    5.4970   20.6210 C.3     1  UNL1       -0.0275
      3  C          9.3190    5.1540   19.8050 C.3     1  UNL1       -0.0352
      4  C         10.6240    5.8490   20.2600 C.3     1  UNL1        0.0151
      5  N         10.7510    5.9900   21.7210 N.am    1  UNL1       -0.2949
      6  C         11.9210    5.5610   22.3700 C.2     1  UNL1        0.2566
      7  O         12.9080    5.2270   21.7010 O.2     1  UNL1       -0.2692
      8  C          9.5240    6.4920   22.3420 C.3     1  UNL1        0.0375
      9  H          7.5040    5.9160   22.6790 H       1  UNL1        0.0561
     10  H          7.7050    6.4560   20.3130 H       1  UNL1        0.0287
     11  H          7.3390    4.7300   20.4400 H       1  UNL1        0.0287
     12  H          9.1350    5.4310   18.7870 H       1  UNL1        0.0281
     13  H          9.4820    4.1050   19.9450 H       1  UNL1        0.0281
     14  H         10.6550    6.8250   19.8230 H       1  UNL1        0.0465
     15  H         11.4330    5.2270   19.9380 H       1  UNL1        0.0465
     16  H          9.6910    6.6080   23.3920 H       1  UNL1        0.0485
     17  H          9.2790    7.4270   21.8830 H       1  UNL1        0.0485
     18  C          8.8200    2.0770   22.7260 C.ar    1  UNL1        0.1038
     19  N          8.7390    3.1350   21.8990 N.ar    1  UNL1       -0.1687
     20  N          8.4910    4.1950   22.6930 N.ar    1  UNL1       -0.2449
     21  C          8.3460    3.8420   24.0060 C.ar    1  UNL1        0.1293
     22  C          8.6720    2.4930   24.0880 C.ar    1  UNL1        0.0583
     23  C          8.7580    1.9600   25.3840 C.3     1  UNL1        0.1306
     24  N          9.2630    0.7110   25.7130 N.3     1  UNL1       -0.3056
     25  N          8.3670    2.7250   26.4250 N.2     1  UNL1       -0.2529
     26  C          7.9920    3.9960   26.1890 C.2     1  UNL1        0.0832
     27  N          7.9830    4.6500   25.0180 N.pl3   1  UNL1       -0.2906
     28  H          9.5670    0.1010   25.0030 H       1  UNL1        0.1205
     29  H          9.3170    0.4360   26.6560 H       1  UNL1        0.1205
     30  H          7.6730    4.5330   27.0110 H       1  UNL1        0.0997
     31  F         11.0470    0.3500   23.2950 F       1  UNL1       -0.2047
     32  C         10.1040   -0.0610   22.4350 C.ar    1  UNL1        0.1361
     33  C          9.0010    0.7430   22.1410 C.ar    1  UNL1        0.0379
     34  C          8.0000    0.1880   21.3260 C.ar    1  UNL1       -0.0463
     35  C          8.1320   -1.0990   20.7890 C.ar    1  UNL1       -0.0185
     36  C          9.2930   -1.8360   21.0150 C.ar    1  UNL1        0.1312
     37  C         10.2670   -1.3240   21.8670 C.ar    1  UNL1        0.0166
     38  H          7.1520    0.7380   21.1220 H       1  UNL1        0.0626
     39  H          7.3680   -1.5010   20.2230 H       1  UNL1        0.0654
     40  H         11.1120   -1.8780   22.0770 H       1  UNL1        0.0683
     41  O          9.5420   -3.0990   20.5300 O.3     1  UNL1       -0.4559
     42  C         10.3870   -3.2810   19.4610 C.ar    1  UNL1        0.1284
     43  C         10.4750   -2.4090   18.3730 C.ar    1  UNL1       -0.0193
     44  C         11.3610   -2.6850   17.3300 C.ar    1  UNL1       -0.0583
     45  C         12.1950   -3.8000   17.3990 C.ar    1  UNL1       -0.0615
     46  C         12.1530   -4.6360   18.5140 C.ar    1  UNL1       -0.0583
     47  C         11.2510   -4.3740   19.5450 C.ar    1  UNL1       -0.0193
     48  H          9.8860   -1.5610   18.3410 H       1  UNL1        0.0654
     49  H         11.3970   -2.0630   16.5070 H       1  UNL1        0.0619
     50  H         12.8430   -4.0070   16.6230 H       1  UNL1        0.0618
     51  H         12.7890   -5.4460   18.5770 H       1  UNL1        0.0619
     52  H         11.2220   -4.9900   20.3720 H       1  UNL1        0.0654
     53  C         12.0250    5.4920   23.9000 C.2     1  UNL1        0.1083
     54  C         12.3420    6.6050   24.6010 C.2     1  UNL1       -0.0726
     55  H         12.5430    7.4370   24.0240 H       1  UNL1        0.0572
     56  C         12.0010    4.2540   24.5850 C.1     1  UNL1        0.1040
     57  N         12.0010    3.2300   25.1210 N.1     1  UNL1       -0.1907
     58  C         12.4530    6.8320   26.1210 C.3     1  UNL1       -0.0509
     59  N         11.7080    8.0450   26.5750 N.4     1  UNL1        0.3831
     60  C         11.4370    8.1490   28.0200 C.3     1  UNL1       -0.1049
     61  C         10.1690    7.4080   28.4980 C.3     1  UNL1       -0.1054
     62  N          8.9510    7.5620   27.6750 N.4     1  UNL1        0.3822
     63  C          9.2290    7.6680   26.2250 C.3     1  UNL1       -0.1054
     64  C         10.5030    8.4380   25.8400 C.3     1  UNL1       -0.1049
     65  H         12.4310    8.7210   26.3250 H       1  UNL1       -0.0808
     66  H         11.3310    9.1850   28.2660 H       1  UNL1        0.0041
     67  H         12.2630    7.6820   28.5150 H       1  UNL1        0.0041
     68  H          9.9400    7.7630   29.4810 H       1  UNL1        0.0041
     69  H         10.4160    6.3690   28.4380 H       1  UNL1        0.0041
     70  H          8.4170    6.7080   27.8290 H       1  UNL1       -0.0814
     71  H          8.3970    8.1610   25.7680 H       1  UNL1        0.0041
     72  H          9.3820    6.6650   25.8850 H       1  UNL1        0.0041
     73  H         10.6850    8.2810   24.7970 H       1  UNL1        0.0041
     74  H         10.3210    9.4630   26.0890 H       1  UNL1        0.0041
     75  C          8.1720    8.7360   28.0930 C.3     1  UNL1       -0.0304
     76  C          8.1380    9.8290   27.0110 C.3     1  UNL1        0.0377
     77  O          8.6490   10.8120   27.9570 O.3     1  UNL1       -0.3828
     78  C          9.1210    9.7280   28.8000 C.3     1  UNL1        0.0377
     79  H          7.2880    8.3000   28.5110 H       1  UNL1        0.0139
     80  H          7.1550   10.0490   26.6480 H       1  UNL1        0.0544
     81  H          8.6400    9.6740   26.0800 H       1  UNL1        0.0544
     82  H         10.1590    9.5010   28.6730 H       1  UNL1        0.0544
     83  H          9.0940    9.8280   29.8650 H       1  UNL1        0.0544
     84  C         11.9010    5.7030   27.0420 C.3     1  UNL1       -0.0715
     85  H         12.6740    4.9870   27.2320 H       1  UNL1        0.0219
     86  H         11.0780    5.2190   26.5590 H       1  UNL1        0.0219
     87  H         11.5720    6.1250   27.9680 H       1  UNL1        0.0219
     88  C         13.9540    6.9310   26.4720 C.3     1  UNL1       -0.0715
     89  H         14.0640    7.3020   27.4700 H       1  UNL1        0.0219
     90  H         14.4380    7.5970   25.7890 H       1  UNL1        0.0219
     91  H         14.4020    5.9610   26.4010 H       1  UNL1        0.0219
     92 H           8.6136    1.4589   24.4497 H       1  UNL1        0.0764
     93 H           7.7419    5.5987   24.9129 H       1  UNL1        0.1544
@<TRIPOS>BOND
     1     1     2    1
     2     1     8    1
     3     1     9    1
     4     1    20    1
     5     2     3    1
     6     2    10    1
     7     2    11    1
     8     3    12    1
     9     3    13    1
    10     3     4    1
    11     4    14    1
    12     4    15    1
    13     4     5    1
    14     5     8    1
    15     5     6   am
    16     6     7    2
    17     6    53    1
    18     8    17    1
    19     8    16    1
    20    18    19   ar
    21    18    33    1
    22    18    22   ar
    23    19    20   ar
    24    20    21   ar
    25    21    22   ar
    26    21    27    1
    27    22    23    1
    28    23    24    1
    29    23    25    1
    30    23    92    1
    31    24    28    1
    32    24    29    1
    33    25    26    2
    34    26    27    1
    35    26    30    1
    36    27    93    1
    37    31    32    1
    38    32    37   ar
    39    32    33   ar
    40    33    34   ar
    41    34    35   ar
    42    34    38    1
    43    35    39    1
    44    35    36   ar
    45    36    41    1
    46    36    37   ar
    47    37    40    1
    48    41    42    1
    49    42    43   ar
    50    42    47   ar
    51    43    44   ar
    52    43    48    1
    53    44    49    1
    54    44    45   ar
    55    45    50    1
    56    45    46   ar
    57    46    51    1
    58    46    47   ar
    59    47    52    1
    60    53    56    1
    61    53    54    2
    62    54    55    1
    63    54    58    1
    64    56    57    3
    65    58    88    1
    66    58    59    1
    67    58    84    1
    68    59    64    1
    69    59    65    1
    70    59    60    1
    71    60    66    1
    72    60    61    1
    73    60    67    1
    74    61    62    1
    75    61    69    1
    76    61    68    1
    77    62    63    1
    78    62    70    1
    79    62    75    1
    80    63    71    1
    81    63    64    1
    82    63    72    1
    83    64    73    1
    84    64    74    1
    85    75    76    1
    86    75    79    1
    87    75    78    1
    88    76    81    1
    89    76    80    1
    90    76    77    1
    91    77    78    1
    92    78    82    1
    93    78    83    1
    94    84    86    1
    95    84    85    1
    96    84    87    1
    97    88    90    1
    98    88    91    1
    99    88    89    1
