@<TRIPOS>MOLECULE
UNL
 62 66 0 0 0
SMALL
GASTEIGER

@<TRIPOS>ATOM
      1  N         10.0840    2.1770   24.4230 N.pl3   1  UNL1        0.0000
      2  C          9.5190    2.2040   25.7010 C.ar    1  UNL1        0.0000
      3  N          9.4160    1.0590   26.3830 N.ar    1  UNL1        0.0000
      4  C          8.9270    1.1550   27.6330 C.ar    1  UNL1        0.0000
      5  C          8.7610    0.0590   28.5310 C.ar    1  UNL1        0.0000
      6  C          8.2580    0.4560   29.7470 C.ar    1  UNL1        0.0000
      7  S          7.9830    2.1450   29.8040 S.2     1  UNL1        0.0000
      8  C          8.5390    2.3620   28.1920 C.ar    1  UNL1        0.0000
      9  C          8.6530    3.5020   27.4120 C.ar    1  UNL1        0.0000
     10  N          9.1740    3.4110   26.1680 N.ar    1  UNL1        0.0000
     11  H         10.5150    3.0070   24.1140 H       1  UNL1        0.0000
     12  H          8.9910   -0.9180   28.2940 H       1  UNL1        0.0000
     13  H          8.0690   -0.1860   30.5330 H       1  UNL1        0.0000
     14  C         10.2490   -1.1310   21.7450 C.ar    1  UNL1        0.0000
     15  C          9.4570   -0.0120   21.4640 C.ar    1  UNL1        0.0000
     16  C          9.3860    1.0820   22.3380 C.ar    1  UNL1        0.0000
     17  C         10.1020    1.0910   23.5350 C.ar    1  UNL1        0.0000
     18  C         10.9150   -0.0040   23.8180 C.ar    1  UNL1        0.0000
     19  C         10.9700   -1.1000   22.9480 C.ar    1  UNL1        0.0000
     20  H          8.9100    0.0100   20.5900 H       1  UNL1        0.0000
     21  H          8.7970    1.8920   22.0920 H       1  UNL1        0.0000
     22  H         11.4820   -0.0090   24.6810 H       1  UNL1        0.0000
     23  H         11.5600   -1.9090   23.1990 H       1  UNL1        0.0000
     24  N         11.0880   -4.2130   18.8970 N.4     1  UNL1        0.0000
     25  C         11.7750   -4.1120   20.2090 C.3     1  UNL1        0.0000
     26  C         10.8750   -3.5000   21.3090 C.3     1  UNL1        0.0000
     27  C         10.5770   -2.8770   18.5100 C.3     1  UNL1        0.0000
     28  C          9.6660   -2.2350   19.5840 C.3     1  UNL1        0.0000
     29  N         10.3880   -2.1840   20.8640 N.pl3   1  UNL1        0.0000
     30  H         10.3080   -4.8650   18.9770 H       1  UNL1        0.0000
     31  H         12.6420   -3.4970   20.0950 H       1  UNL1        0.0000
     32  H         12.0300   -5.1050   20.5160 H       1  UNL1        0.0000
     33  H         11.4410   -3.3860   22.2090 H       1  UNL1        0.0000
     34  H         10.0420   -4.1470   21.4920 H       1  UNL1        0.0000
     35  H         10.0160   -2.9780   17.6050 H       1  UNL1        0.0000
     36  H         11.4250   -2.2360   18.3890 H       1  UNL1        0.0000
     37  H          8.7780   -2.8220   19.6970 H       1  UNL1        0.0000
     38  H          9.3990   -1.2440   19.2820 H       1  UNL1        0.0000
     39  C         12.0040   -4.7200   17.8800 C.3     1  UNL1        0.0000
     40  H         13.0140   -4.5370   18.1840 H       1  UNL1        0.0000
     41  H         11.8160   -4.2220   16.9500 H       1  UNL1        0.0000
     42  H         11.8540   -5.7720   17.7570 H       1  UNL1        0.0000
     43  O          8.3760    4.7500   27.9460 O.3     1  UNL1        0.0000
     44  C          9.0820    5.8380   27.4860 C.ar    1  UNL1        0.0000
     45  C         10.3900    6.1480   27.8740 C.ar    1  UNL1        0.0000
     46  C         11.0880    7.1850   27.2490 C.ar    1  UNL1        0.0000
     47  C         10.4480    7.9290   26.2480 C.ar    1  UNL1        0.0000
     48  C          9.1430    7.6210   25.8570 C.ar    1  UNL1        0.0000
     49  C          8.4670    6.5680   26.4670 C.ar    1  UNL1        0.0000
     50  H         10.8430    5.6080   28.6280 H       1  UNL1        0.0000
     51  H         10.9460    8.7120   25.7940 H       1  UNL1        0.0000
     52  H          8.6800    8.1740   25.1180 H       1  UNL1        0.0000
     53  H          7.5100    6.3260   26.1660 H       1  UNL1        0.0000
     54  N         12.4400    7.5030   27.5210 N.am    1  UNL1        0.0000
     55  C         13.5420    7.1250   26.7790 C.2     1  UNL1        0.0000
     56  O         13.5670    6.3530   25.8330 O.2     1  UNL1        0.0000
     57  H         12.6120    8.0500   28.3210 H       1  UNL1        0.0000
     58  C         14.7880    7.8010   27.2440 C.2     1  UNL1        0.0000
     59  C         14.7150    8.9860   27.8630 C.2     1  UNL1        0.0000
     60  H         15.7060    7.3550   27.0880 H       1  UNL1        0.0000
     61  H         13.7970    9.4330   28.0180 H       1  UNL1        0.0000
     62  H         15.5770    9.4540   28.1850 H       1  UNL1        0.0000
@<TRIPOS>BOND
     1     1    17    1
     2     1    11    1
     3     1     2    1
     4     2    10   ar
     5     2     3   ar
     6     3     4   ar
     7     4     8   ar
     8     4     5   ar
     9     5    12    1
    10     5     6   ar
    11     6     7   ar
    12     6    13    1
    13     7     8   ar
    14     8     9   ar
    15     9    10   ar
    16     9    43    1
    17    14    29    1
    18    14    15   ar
    19    14    19   ar
    20    15    20    1
    21    15    16   ar
    22    16    21    1
    23    16    17   ar
    24    17    18   ar
    25    18    19   ar
    26    18    22    1
    27    19    23    1
    28    24    39    1
    29    24    27    1
    30    24    30    1
    31    24    25    1
    32    25    31    1
    33    25    32    1
    34    25    26    1
    35    26    29    1
    36    26    34    1
    37    26    33    1
    38    27    35    1
    39    27    36    1
    40    27    28    1
    41    28    38    1
    42    28    37    1
    43    28    29    1
    44    39    41    1
    45    39    42    1
    46    39    40    1
    47    43    44    1
    48    44    49   ar
    49    44    45   ar
    50    45    46   ar
    51    45    50    1
    52    46    47   ar
    53    46    54    1
    54    47    51    1
    55    47    48   ar
    56    48    52    1
    57    48    49   ar
    58    49    53    1
    59    54    55   am
    60    54    57    1
    61    55    56    2
    62    55    58    1
    63    58    60    1
    64    58    59    2
    65    59    61    1
    66    59    62    1
