@<TRIPOS>MOLECULE
UNL
 44 46 0 0 0
SMALL
GASTEIGER

@<TRIPOS>ATOM
      1  N          8.9590    2.8640   27.8650 N.pl3   1  UNL1       -0.1443
      2  C          8.1290    3.5560   28.7250 C.3     1  UNL1        0.2301
      3  N          8.5460    4.7850   28.9040 N.2     1  UNL1       -0.0578
      4  C          9.6870    4.8280   28.1560 C.2     1  UNL1        0.3356
      5  N         10.0450    3.6490   27.6330 N.pl3   1  UNL1       -0.1334
      6  H          7.2880    3.1560   29.1690 H       1  UNL1        0.1042
      7  C         10.4250    6.0710   27.9580 C.ar    1  UNL1        0.0681
      8  C         11.7130    6.0460   27.4010 C.ar    1  UNL1       -0.0352
      9  C         12.4470    7.2290   27.2160 C.ar    1  UNL1        0.0561
     10  C         11.8710    8.4500   27.6050 C.ar    1  UNL1       -0.0384
     11  C         10.5820    8.4990   28.1610 C.ar    1  UNL1        0.0561
     12  C          9.8740    7.3000   28.3390 C.ar    1  UNL1       -0.0352
     13  H         12.1300    5.1430   27.1230 H       1  UNL1        0.0631
     14  H         12.4030    9.3250   27.4780 H       1  UNL1        0.0629
     15  H          8.9320    7.3250   28.7600 H       1  UNL1        0.0631
     16  C         13.8230    7.2040   26.5960 C.3     1  UNL1        0.4175
     17  F         14.5970    8.2740   26.9260 F       1  UNL1       -0.1659
     18  F         14.5330    6.1010   26.9650 F       1  UNL1       -0.1659
     19  F         13.7790    7.1800   25.2350 F       1  UNL1       -0.1659
     20  C          9.9360    9.8050   28.5540 C.3     1  UNL1        0.4175
     21  F          9.3120    9.7590   29.7630 F       1  UNL1       -0.1659
     22  F         10.8380   10.8220   28.6390 F       1  UNL1       -0.1659
     23  F          8.9940   10.2130   27.6610 F       1  UNL1       -0.1659
     24  C          9.2380    1.0400   26.2020 C.2     1  UNL1        0.0188
     25  C          8.8050    1.5680   27.3600 C.2     1  UNL1        0.0412
     26  H          8.8500    0.1310   25.9040 H       1  UNL1        0.0683
     27  H          8.2800    0.9200   27.9680 H       1  UNL1        0.0820
     28  O         11.4440    1.4660   25.4210 O.2     1  UNL1       -0.2693
     29  C         10.2410    1.6940   25.3300 C.2     1  UNL1        0.2542
     30  N          9.7250    2.5520   24.3940 N.am    1  UNL1       -0.2317
     31  H          8.7630    2.7600   24.3530 H       1  UNL1        0.1731
     32  N         10.6490    3.1180   23.4950 N.pl3   1  UNL1       -0.2470
     33  C         10.7540    4.5250   23.6080 C.ar    1  UNL1        0.1531
     34  N          9.8600    5.2290   24.3470 N.ar    1  UNL1       -0.2360
     35  C          9.9980    6.5780   24.3110 C.ar    1  UNL1        0.0478
     36  C         10.9740    7.2180   23.5630 C.ar    1  UNL1        0.0458
     37  N         11.8680    6.5390   22.8190 N.ar    1  UNL1       -0.2583
     38  C         11.7310    5.1900   22.8550 C.ar    1  UNL1        0.0687
     39  H         11.1720    2.5870   22.8520 H       1  UNL1        0.1716
     40  H          9.3470    7.1550   24.8680 H       1  UNL1        0.0846
     41  H         11.0160    8.2490   23.5760 H       1  UNL1        0.0845
     42  H         12.3830    4.6200   22.2940 H       1  UNL1        0.0865
     43 H           7.2585    3.1436   29.1908 H       1  UNL1        0.1042
     44 H          10.8897    3.4085   27.1882 H       1  UNL1        0.3231
@<TRIPOS>BOND
     1     1    25    1
     2     1     5    1
     3     1     2    1
     4     2     3    1
     5     2     6    1
     6     2    43    1
     7     3     4    2
     8     4     5    1
     9     4     7    1
    10     5    44    1
    11     7     8   ar
    12     7    12   ar
    13     8    13    1
    14     8     9   ar
    15     9    16    1
    16     9    10   ar
    17    10    14    1
    18    10    11   ar
    19    11    12   ar
    20    11    20    1
    21    12    15    1
    22    16    19    1
    23    16    17    1
    24    16    18    1
    25    20    23    1
    26    20    22    1
    27    20    21    1
    28    24    29    1
    29    24    26    1
    30    24    25    2
    31    25    27    1
    32    28    29    2
    33    29    30   am
    34    30    32    1
    35    30    31    1
    36    32    39    1
    37    32    33    1
    38    33    38   ar
    39    33    34   ar
    40    34    35   ar
    41    35    36   ar
    42    35    40    1
    43    36    37   ar
    44    36    41    1
    45    37    38   ar
    46    38    42    1
