@<TRIPOS>MOLECULE
UNL
 42 44 0 0 0
SMALL
GASTEIGER

@<TRIPOS>ATOM
      1  C         13.6020    7.0760   26.7880 C.2     1  UNL1        0.2392
      2  N         13.6620    6.6820   25.4630 N.am    1  UNL1       -0.2938
      3  C         12.3730    6.6070   24.7550 C.3     1  UNL1        0.0307
      4  C         12.0010    5.1650   24.3470 C.3     1  UNL1        0.0256
      5  C         13.1380    4.6190   23.4740 C.3     1  UNL1       -0.0343
      6  C         14.4840    4.7060   24.1880 C.3     1  UNL1       -0.0331
      7  C         14.8090    6.1340   24.6840 C.3     1  UNL1        0.0236
      8  O         12.5480    7.1670   27.4200 O.2     1  UNL1       -0.2706
      9  H         12.4310    7.2080   23.8720 H       1  UNL1        0.0480
     10  H         11.6160    6.9590   25.4230 H       1  UNL1        0.0480
     11  H         11.0830    5.1540   23.7980 H       1  UNL1        0.0476
     12  H         13.1860    5.1890   22.5700 H       1  UNL1        0.0281
     13  H         12.9340    3.5890   23.2650 H       1  UNL1        0.0281
     14  H         15.2520    4.3970   23.5100 H       1  UNL1        0.0284
     15  H         14.4350    4.0700   25.0480 H       1  UNL1        0.0284
     16  H         14.9020    6.8670   23.9110 H       1  UNL1        0.0498
     17  N         11.8040    4.3310   25.5400 N.3     1  UNL1       -0.2872
     18  C         11.1770    3.0990   25.3540 C.3     1  UNL1        0.1312
     19  N         11.2730    2.4600   24.1600 N.2     1  UNL1       -0.2528
     20  C         10.6820    1.2590   24.0110 C.2     1  UNL1        0.0832
     21  N          9.9570    0.5720   24.9030 N.pl3   1  UNL1       -0.2919
     22  C          9.8770    1.2350   26.0680 C.ar    1  UNL1        0.1076
     23  C         10.4440    2.4620   26.3730 C.ar    1  UNL1        0.0306
     24  C         10.0880    2.7430   27.7270 C.ar    1  UNL1       -0.0360
     25  C          9.3150    1.6950   28.1860 C.ar    1  UNL1        0.0037
     26  N          9.1970    0.7870   27.1660 N.ar    1  UNL1       -0.3492
     27  H         12.1010    4.6280   26.4300 H       1  UNL1        0.1245
     28  H         10.8030    0.8110   23.0880 H       1  UNL1        0.0997
     29  H         10.3600    3.5790   28.2660 H       1  UNL1        0.0637
     30  H          8.9010    1.6100   29.1270 H       1  UNL1        0.0807
     31  H          8.6990   -0.0610   27.2160 H       1  UNL1        0.1665
     32  C         15.0640    8.7830   27.7190 C.2     1  UNL1       -0.0938
     33  C         14.8530    7.4870   27.4500 C.2     1  UNL1       -0.0067
     34  H         15.9380    9.0780   28.1830 H       1  UNL1        0.0536
     35  H         14.3540    9.4860   27.4640 H       1  UNL1        0.0536
     36  H         15.5620    6.7820   27.7040 H       1  UNL1        0.0663
     37  C         16.1940    6.0750   25.3320 C.3     1  UNL1       -0.0464
     38  H         16.6490    7.0430   25.2910 H       1  UNL1        0.0248
     39  H         16.8050    5.3720   24.8040 H       1  UNL1        0.0248
     40  H         16.0980    5.7680   26.3520 H       1  UNL1        0.0248
     41 H          11.1888    4.0341   25.8739 H       1  UNL1        0.0766
     42 H           9.5388   -0.3019   24.7281 H       1  UNL1        0.1544
@<TRIPOS>BOND
     1     1     2   am
     2     1     8    2
     3     1    33    1
     4     2     7    1
     5     2     3    1
     6     3     9    1
     7     3     4    1
     8     3    10    1
     9     4     5    1
    10     4    11    1
    11     4    17    1
    12     5    12    1
    13     5    13    1
    14     5     6    1
    15     6    14    1
    16     6     7    1
    17     6    15    1
    18     7    16    1
    19     7    37    1
    20    17    18    1
    21    17    27    1
    22    18    19    1
    23    18    23    1
    24    18    41    1
    25    19    20    2
    26    20    28    1
    27    20    21    1
    28    21    22    1
    29    21    42    1
    30    22    23   ar
    31    22    26   ar
    32    23    24   ar
    33    24    25   ar
    34    24    29    1
    35    25    26   ar
    36    25    30    1
    37    26    31    1
    38    32    33    2
    39    32    35    1
    40    32    34    1
    41    33    36    1
    42    37    39    1
    43    37    38    1
    44    37    40    1
