@<TRIPOS>MOLECULE
UNL
 53 56 0 0 0
SMALL
GASTEIGER

@<TRIPOS>ATOM
      1  N         12.3940    5.6390   23.1920 N.ar    1  UNL1        0.0000
      2  C         11.1050    6.0920   23.3500 C.ar    1  UNL1        0.0000
      3  N         10.4540    6.2990   24.5090 N.ar    1  UNL1        0.0000
      4  C          9.2000    6.7330   24.2950 C.ar    1  UNL1        0.0000
      5  N          8.5940    6.9710   23.1140 N.ar    1  UNL1        0.0000
      6  C          9.2900    6.7640   21.9770 C.ar    1  UNL1        0.0000
      7  C         10.6020    6.2930   22.0770 C.ar    1  UNL1        0.0000
      8  C         11.6670    5.9330   21.2260 C.ar    1  UNL1        0.0000
      9  N         12.7650    5.5490   21.8890 N.ar    1  UNL1        0.0000
     10  H          8.6320    6.9060   25.1390 H       1  UNL1        0.0000
     11  O         16.8230    7.3070   26.5370 O.2     1  UNL1        0.0000
     12  C         15.5960    7.2870   26.4740 C.2     1  UNL1        0.0000
     13  N         14.8950    6.3550   25.7420 N.am    1  UNL1        0.0000
     14  C         15.5840    5.2960   25.0370 C.3     1  UNL1        0.0000
     15  C         14.7480    5.0710   23.7920 C.3     1  UNL1        0.0000
     16  C         13.3120    5.3290   24.2700 C.3     1  UNL1        0.0000
     17  C         13.4900    6.4250   25.3380 C.3     1  UNL1        0.0000
     18  H         15.6250    4.4080   25.6320 H       1  UNL1        0.0000
     19  H         16.5990    5.5470   24.8080 H       1  UNL1        0.0000
     20  H         14.8560    4.0680   23.4340 H       1  UNL1        0.0000
     21  H         15.0350    5.7050   22.9780 H       1  UNL1        0.0000
     22  H         12.8340    4.4660   24.6850 H       1  UNL1        0.0000
     23  H         13.2670    7.3870   24.9260 H       1  UNL1        0.0000
     24  H         12.8310    6.2780   26.1680 H       1  UNL1        0.0000
     25  C         14.7780    8.2810   27.2150 C.2     1  UNL1        0.0000
     26  C         15.2980    8.9540   28.2510 C.2     1  UNL1        0.0000
     27  H         13.8010    8.4530   26.9310 H       1  UNL1        0.0000
     28  H         16.2740    8.7850   28.5380 H       1  UNL1        0.0000
     29  H         14.7210    9.6420   28.7600 H       1  UNL1        0.0000
     30  N          8.6410    7.0390   20.7840 N.pl3   1  UNL1        0.0000
     31  H          9.1320    7.4610   20.0420 H       1  UNL1        0.0000
     32  H          7.6880    6.8140   20.6780 H       1  UNL1        0.0000
     33  C         11.6760    5.9300   19.8000 C.1     1  UNL1        0.0000
     34  C         11.7690    5.9000   18.5990 C.1     1  UNL1        0.0000
     35  C         11.9360    5.8470   17.1770 C.ar    1  UNL1        0.0000
     36  C         11.6000    4.6830   16.4740 C.ar    1  UNL1        0.0000
     37  C         11.7730    4.6320   15.0890 C.ar    1  UNL1        0.0000
     38  C         12.2860    5.7450   14.4130 C.ar    1  UNL1        0.0000
     39  C         12.6280    6.9060   15.1080 C.ar    1  UNL1        0.0000
     40  C         12.4520    6.9510   16.4920 C.ar    1  UNL1        0.0000
     41  H         11.2250    3.8650   16.9790 H       1  UNL1        0.0000
     42  H         12.4130    5.7060   13.3890 H       1  UNL1        0.0000
     43  H         12.7040    7.8050   17.0130 H       1  UNL1        0.0000
     44  O         11.4850    3.5690   14.2760 O.3     1  UNL1        0.0000
     45  C         12.4350    2.5140   14.2210 C.3     1  UNL1        0.0000
     46  H         12.7350    2.3590   13.2060 H       1  UNL1        0.0000
     47  H         11.9950    1.6180   14.6040 H       1  UNL1        0.0000
     48  H         13.2890    2.7730   14.8110 H       1  UNL1        0.0000
     49  O         13.1390    8.0480   14.5510 O.3     1  UNL1        0.0000
     50  C         12.3700    8.6600   13.5210 C.3     1  UNL1        0.0000
     51  H         11.8600    9.5130   13.9170 H       1  UNL1        0.0000
     52  H         11.6530    7.9590   13.1470 H       1  UNL1        0.0000
     53  H         13.0170    8.9670   12.7270 H       1  UNL1        0.0000
@<TRIPOS>BOND
     1     1     9   ar
     2     1     2   ar
     3     1    16    1
     4     2     7   ar
     5     2     3   ar
     6     3     4   ar
     7     4     5   ar
     8     4    10    1
     9     5     6   ar
    10     6    30    1
    11     6     7   ar
    12     7     8   ar
    13     8    33    1
    14     8     9   ar
    15    11    12    2
    16    12    13   am
    17    12    25    1
    18    13    14    1
    19    13    17    1
    20    14    15    1
    21    14    19    1
    22    14    18    1
    23    15    21    1
    24    15    20    1
    25    15    16    1
    26    16    22    1
    27    16    17    1
    28    17    23    1
    29    17    24    1
    30    25    27    1
    31    25    26    2
    32    26    28    1
    33    26    29    1
    34    30    31    1
    35    30    32    1
    36    33    34    3
    37    34    35    1
    38    35    36   ar
    39    35    40   ar
    40    36    37   ar
    41    36    41    1
    42    37    44    1
    43    37    38   ar
    44    38    42    1
    45    38    39   ar
    46    39    49    1
    47    39    40   ar
    48    40    43    1
    49    44    45    1
    50    45    46    1
    51    45    47    1
    52    45    48    1
    53    49    50    1
    54    50    53    1
    55    50    52    1
    56    50    51    1
