@<TRIPOS>MOLECULE
UNL
 80 85 0 0 0
SMALL
GASTEIGER

@<TRIPOS>ATOM
      1  C          8.6040    1.8890   25.0200 C.1     1  UNL1        0.3092
      2  N          9.2010    2.8900   25.6820 N.2     1  UNL1       -0.1712
      3  C          9.8620    3.7960   24.9230 C.3     1  UNL1        0.1099
      4  C          9.8710    3.7290   23.5270 C.2     1  UNL1        0.0498
      5  C         10.7660    4.6600   22.7660 C.3     1  UNL1       -0.0059
      6  C         11.0760    5.9470   23.4870 C.3     1  UNL1        0.0163
      7  N         11.5440    5.7050   24.8400 N.pl3   1  UNL1       -0.3267
      8  C         10.5740    4.9360   25.6650 C.3     1  UNL1        0.0396
      9  C          9.1760    2.6840   22.9200 C.2     1  UNL1        0.3292
     10  N          8.5590    1.7620   23.6830 N.2     1  UNL1        0.0495
     11  N          9.0490    2.5190   21.5530 N.pl3   1  UNL1       -0.2165
     12  C          8.9850    3.6360   20.6100 C.3     1  UNL1        0.0964
     13  C          7.9830    3.3490   19.4960 C.3     1  UNL1        0.0516
     14  N          8.3460    2.1070   18.8120 N.am    1  UNL1       -0.2845
     15  C          8.2850    0.9320   19.7570 C.3     1  UNL1        0.0751
     16  C          9.2400    1.1740   20.9780 C.3     1  UNL1        0.1001
     17  C          8.8990    2.0650   17.5370 C.2     1  UNL1        0.2747
     18  O          9.1230    1.0040   16.9530 O.2     1  UNL1       -0.2675
     19  H         10.2900    4.9020   21.8390 H       1  UNL1        0.0328
     20  H         11.6970    4.1500   22.6340 H       1  UNL1        0.0328
     21  H         10.1890    6.5430   23.5290 H       1  UNL1        0.0467
     22  H         11.8520    6.4510   22.9500 H       1  UNL1        0.0467
     23  H         11.1010    4.5150   26.4950 H       1  UNL1        0.0488
     24  H          9.8120    5.6280   25.9580 H       1  UNL1        0.0488
     25  H          9.9530    3.7880   20.1810 H       1  UNL1        0.0742
     26  H          8.6700    4.5130   21.1370 H       1  UNL1        0.0742
     27  H          7.9900    4.1570   18.7940 H       1  UNL1        0.0502
     28  H          7.0050    3.2480   19.9180 H       1  UNL1        0.0502
     29  H          7.2620    0.9060   20.0690 H       1  UNL1        0.0548
     30  H          9.0370    0.4410   21.7300 H       1  UNL1        0.0745
     31  H         10.2520    1.0950   20.6350 H       1  UNL1        0.0745
     32  C         12.9240    5.7550   25.0860 C.ar    1  UNL1        0.0390
     33  C         13.7600    4.9270   24.3000 C.ar    1  UNL1       -0.0400
     34  C         15.1400    4.9150   24.4350 C.ar    1  UNL1       -0.0594
     35  C         15.7440    5.7840   25.3220 C.ar    1  UNL1       -0.0539
     36  C         14.9900    6.6650   26.1020 C.ar    1  UNL1       -0.0147
     37  C         13.5590    6.6530   26.0760 C.ar    1  UNL1        0.0214
     38  C         12.9780    7.5350   27.0720 C.ar    1  UNL1        0.0504
     39  C         13.7270    8.4790   27.8010 C.ar    1  UNL1       -0.0427
     40  C         15.1040    8.4850   27.7210 C.ar    1  UNL1       -0.0598
     41  C         15.7240    7.5460   26.9150 C.ar    1  UNL1       -0.0539
     42 CL         11.3320    7.4270   27.6380 Cl      1  UNL1       -0.0829
     43  H         13.3260    4.3070   23.6000 H       1  UNL1        0.0636
     44  H         15.7120    4.2630   23.8760 H       1  UNL1        0.0618
     45  H         16.7720    5.7830   25.4100 H       1  UNL1        0.0624
     46  H         13.2450    9.1680   28.3970 H       1  UNL1        0.0632
     47  H         15.6600    9.1750   28.2510 H       1  UNL1        0.0618
     48  H         16.7550    7.4910   26.9110 H       1  UNL1        0.0624
     49  C          9.2340    3.3560   16.8290 C.2     1  UNL1        0.1779
     50  C          8.6990    3.7130   15.6570 C.2     1  UNL1       -0.0581
     51  F         10.1890    4.1410   17.3710 F       1  UNL1       -0.2007
     52  H          7.9670    3.1290   15.2240 H       1  UNL1        0.0565
     53  H          9.0180    4.5740   15.1850 H       1  UNL1        0.0565
     54  C          8.4730   -0.4770   19.1600 C.3     1  UNL1        0.0569
     55  H          8.5350   -0.3940   18.0950 H       1  UNL1        0.0437
     56  H          7.6360   -1.0720   19.4570 H       1  UNL1        0.0437
     57  C          9.7010   -1.1400   19.6590 C.1     1  UNL1        0.0645
     58  N         10.6490   -1.6820   20.0330 N.1     1  UNL1       -0.1965
     59  O          7.9830    0.9300   25.8080 O.2     1  UNL1       -0.4169
     60  C          8.7950    0.6140   26.9480 C.3     1  UNL1        0.0928
     61  H          9.2190   -0.3590   26.8070 H       1  UNL1        0.0692
     62  H          9.5510    1.3680   27.0240 H       1  UNL1        0.0692
     63  N          8.5950   -0.2670   29.2900 N.4     1  UNL1        0.3819
     64  C          8.0260    0.1490   30.5680 C.3     1  UNL1       -0.0905
     65  C          8.0510    1.6620   30.4730 C.3     1  UNL1       -0.0694
     66  C          7.9840    1.9770   28.9780 C.3     1  UNL1       -0.0638
     67  C          7.9980    0.6180   28.2690 C.3     1  UNL1       -0.0424
     68  H          9.6100   -0.1690   29.2750 H       1  UNL1       -0.0817
     69  H          8.6230   -0.1960   31.3860 H       1  UNL1        0.0059
     70  H          7.0480   -0.2470   30.7450 H       1  UNL1        0.0059
     71  H          8.9560    2.0490   30.8960 H       1  UNL1        0.0247
     72  H          7.2420    2.1100   31.0110 H       1  UNL1        0.0247
     73  H          8.8280    2.5630   28.6800 H       1  UNL1        0.0250
     74  H          7.1080    2.5420   28.7320 H       1  UNL1        0.0250
     75  H          7.0230    0.3130   27.9510 H       1  UNL1        0.0127
     76  C          8.3830   -1.6870   29.0400 C.3     1  UNL1       -0.1027
     77  H          9.1840   -2.0660   28.4390 H       1  UNL1        0.0024
     78  H          7.4560   -1.8240   28.5250 H       1  UNL1        0.0024
     79  H          8.3560   -2.2130   29.9700 H       1  UNL1        0.0024
     80 H          10.2123    3.2962   24.0441 H       1  UNL1        0.0619
@<TRIPOS>BOND
     1     1    10    2
     2     1     2    2
     3     1    59    1
     4     2     3    1
     5     3     4    1
     6     3     8    1
     7     3    80    1
     8     4     5    1
     9     4     9    2
    10     5    19    1
    11     5    20    1
    12     5     6    1
    13     6    22    1
    14     6    21    1
    15     6     7    1
    16     7    32    1
    17     7     8    1
    18     8    24    1
    19     8    23    1
    20     9    11    1
    21     9    10    1
    22    11    12    1
    23    11    16    1
    24    12    13    1
    25    12    25    1
    26    12    26    1
    27    13    27    1
    28    13    14    1
    29    13    28    1
    30    14    17   am
    31    14    15    1
    32    15    54    1
    33    15    29    1
    34    15    16    1
    35    16    31    1
    36    16    30    1
    37    17    49    1
    38    17    18    2
    39    32    33   ar
    40    32    37   ar
    41    33    43    1
    42    33    34   ar
    43    34    44    1
    44    34    35   ar
    45    35    45    1
    46    35    36   ar
    47    36    37   ar
    48    36    41   ar
    49    37    38   ar
    50    38    42    1
    51    38    39   ar
    52    39    40   ar
    53    39    46    1
    54    40    41   ar
    55    40    47    1
    56    41    48    1
    57    49    50    2
    58    49    51    1
    59    50    53    1
    60    50    52    1
    61    54    55    1
    62    54    56    1
    63    54    57    1
    64    57    58    3
    65    59    60    1
    66    60    61    1
    67    60    62    1
    68    60    67    1
    69    63    67    1
    70    63    76    1
    71    63    68    1
    72    63    64    1
    73    64    65    1
    74    64    70    1
    75    64    69    1
    76    65    66    1
    77    65    71    1
    78    65    72    1
    79    66    67    1
    80    66    73    1
    81    66    74    1
    82    67    75    1
    83    76    77    1
    84    76    78    1
    85    76    79    1
