@<TRIPOS>MOLECULE
UNL
 87 90 0 0 0
SMALL
GASTEIGER

@<TRIPOS>ATOM
      1  C          8.5560    2.9100   20.8100 C.ar    1  UNL1        0.1581
      2  C          8.5440    4.2020   20.2710 C.ar    1  UNL1        0.1355
      3  C          9.2410    5.1980   20.9790 C.ar    1  UNL1        0.0015
      4  C          9.9010    4.9720   22.1890 C.ar    1  UNL1        0.0582
      5  C          9.8360    3.6980   22.7910 C.ar    1  UNL1        0.0546
      6  C          9.1560    2.6900   22.0710 C.ar    1  UNL1        0.0062
      7  H          9.2670    6.1510   20.5820 H       1  UNL1        0.0671
      8  H          9.0940    1.7470   22.4860 H       1  UNL1        0.0674
      9  N          7.9830    4.5220   18.9990 N.pl3   1  UNL1       -0.1983
     10  C          8.6420    4.2210   17.7930 C.cat   1  UNL1        0.4181
     11  N          9.9010    4.6260   17.6070 N.2     1  UNL1       -0.1068
     12  C         10.6100    4.1610   16.5350 C.3     1  UNL1        0.1425
     13  C         10.0550    3.2460   15.6680 C.3     1  UNL1        0.1441
     14  C          8.7280    2.9490   15.9050 C.2     1  UNL1        0.1006
     15  N          7.9920    3.4370   16.9300 N.2     1  UNL1       -0.0834
     16  H          7.1070    4.9700   18.9640 H       1  UNL1        0.2516
     17  H          8.2600    2.3040   15.2490 H       1  UNL1        0.0985
     18  C         11.8850    4.9410   16.3330 C.3     1  UNL1        0.0397
     19  C         11.8660    6.2150   16.9380 C.3     1  UNL1        0.0221
     20  N         11.2190    6.9540   15.9450 N.pl3   1  UNL1       -0.3320
     21  C         11.8220    6.5930   14.7590 C.ar    1  UNL1        0.0331
     22  C         12.4080    5.3460   15.0410 C.ar    1  UNL1       -0.0184
     23  C         13.2450    4.7640   14.0710 C.ar    1  UNL1       -0.0564
     24  C         13.4240    5.4130   12.8470 C.ar    1  UNL1       -0.0614
     25  C         12.7450    6.5990   12.5630 C.ar    1  UNL1       -0.0600
     26  C         11.9120    7.2090   13.5090 C.ar    1  UNL1       -0.0404
     27  H         12.2280    6.5180   17.8550 H       1  UNL1        0.0471
     28  H         13.7200    3.8680   14.2620 H       1  UNL1        0.0621
     29  H         14.0640    5.0120   12.1450 H       1  UNL1        0.0618
     30  H         12.8620    7.0380   11.6370 H       1  UNL1        0.0618
     31  H         11.3890    8.0720   13.2930 H       1  UNL1        0.0636
     32  C          9.9080    7.5380   16.1160 C.3     1  UNL1        0.0007
     33  H         10.0100    8.5500   16.4480 H       1  UNL1        0.0428
     34  H          9.3600    6.9770   16.8440 H       1  UNL1        0.0428
     35  H          9.3850    7.5190   15.1830 H       1  UNL1        0.0428
     36  C         10.7700    2.5190   14.6100 C.2     1  UNL1        0.3207
     37  O         10.8890    2.9200   13.4700 O.2     1  UNL1       -0.2499
     38  O         11.3490    1.3970   15.1270 O.3     1  UNL1       -0.4613
     39  C         10.7730    0.1450   14.6970 C.3     1  UNL1        0.0975
     40  H          9.8320    0.3230   14.2210 H       1  UNL1        0.0728
     41  C         10.6030   -0.7320   15.9360 C.3     1  UNL1       -0.0280
     42  H          9.5620   -0.8330   16.1610 H       1  UNL1        0.0265
     43  H         11.1040   -0.2780   16.7650 H       1  UNL1        0.0265
     44  H         11.0240   -1.6970   15.7490 H       1  UNL1        0.0265
     45  C         11.6840   -0.5560   13.6900 C.3     1  UNL1       -0.0280
     46  H         12.7070   -0.3370   13.9210 H       1  UNL1        0.0265
     47  H         11.4590   -0.2090   12.7030 H       1  UNL1        0.0265
     48  H         11.5260   -1.6130   13.7420 H       1  UNL1        0.0265
     49  N         10.7180    5.9670   22.7790 N.am    1  UNL1       -0.2804
     50  C         11.7260    6.6870   22.1720 C.2     1  UNL1        0.2406
     51  O         12.0300    6.6910   20.9840 O.2     1  UNL1       -0.2705
     52  H         10.5470    6.1670   23.7270 H       1  UNL1        0.1552
     53  C         12.4900    7.5220   23.1370 C.2     1  UNL1       -0.0066
     54  C         12.8430    7.0150   24.3260 C.2     1  UNL1       -0.0938
     55  H         12.7470    8.4920   22.8910 H       1  UNL1        0.0663
     56  H         12.5860    6.0460   24.5700 H       1  UNL1        0.0536
     57  H         13.3740    7.5920   24.9960 H       1  UNL1        0.0536
     58  N         10.4540    3.4600   24.0630 N.pl3   1  UNL1       -0.3332
     59  C         11.2270    2.2110   24.1340 C.3     1  UNL1        0.0006
     60  H         11.5320    1.9250   23.1500 H       1  UNL1        0.0428
     61  H         10.6190    1.4400   24.5590 H       1  UNL1        0.0428
     62  H         12.0920    2.3620   24.7460 H       1  UNL1        0.0428
     63  C          9.4710    3.6580   25.1800 C.3     1  UNL1       -0.0029
     64  H          9.0660    2.7040   25.4480 H       1  UNL1        0.0445
     65  H          8.7190    4.3310   24.8260 H       1  UNL1        0.0445
     66  C         10.1040    4.2990   26.4490 C.3     1  UNL1       -0.0752
     67  H         11.0990    4.6070   26.2020 H       1  UNL1        0.0074
     68  H         10.0610    3.5480   27.2100 H       1  UNL1        0.0074
     69  N          9.3860    5.4710   26.9970 N.4     1  UNL1        0.3770
     70  H          8.3970    5.2250   27.0480 H       1  UNL1       -0.0826
     71  C          9.5700    6.6290   26.1140 C.3     1  UNL1       -0.1035
     72  H          8.6190    7.0710   25.9030 H       1  UNL1        0.0023
     73  H         10.0270    6.3120   25.2000 H       1  UNL1        0.0023
     74  H         10.1990    7.3490   26.5970 H       1  UNL1        0.0023
     75  C          9.8350    5.8100   28.3480 C.3     1  UNL1       -0.1035
     76  H         10.1340    4.9190   28.8590 H       1  UNL1        0.0023
     77  H          9.0340    6.2760   28.8830 H       1  UNL1        0.0023
     78  H         10.6650    6.4840   28.2900 H       1  UNL1        0.0023
     79  O          7.9970    1.7730   20.2850 O.3     1  UNL1       -0.4918
     80  C          8.3600    0.5250   20.8580 C.3     1  UNL1        0.0789
     81  H          8.6850    0.6760   21.8660 H       1  UNL1        0.0660
     82  H          9.1550    0.0890   20.2890 H       1  UNL1        0.0660
     83  H          7.5150   -0.1310   20.8500 H       1  UNL1        0.0660
     84 H          11.0016    3.1710   16.4278 H       1  UNL1        0.0748
     85 H          10.7085    3.6608   14.9293 H       1  UNL1        0.0522
     86 H          12.4821    4.1443   16.7250 H       1  UNL1        0.0400
     87 H          12.2418    6.5207   17.8921 H       1  UNL1        0.0471
@<TRIPOS>BOND
     1     1     2   ar
     2     1    79    1
     3     1     6   ar
     4     2     9    1
     5     2     3   ar
     6     3     7    1
     7     3     4   ar
     8     4    49    1
     9     4     5   ar
    10     5     6   ar
    11     5    58    1
    12     6     8    1
    13     9    10    1
    14     9    16    1
    15    10    15    1
    16    10    11    2
    17    11    12    1
    18    12    13    1
    19    12    18    1
    20    12    84    1
    21    13    36    1
    22    13    14    1
    23    13    85    1
    24    14    17    1
    25    14    15    2
    26    18    22    1
    27    18    19    1
    28    18    86    1
    29    19    20    1
    30    19    27    1
    31    19    87    1
    32    20    21    1
    33    20    32    1
    34    21    26   ar
    35    21    22   ar
    36    22    23   ar
    37    23    24   ar
    38    23    28    1
    39    24    29    1
    40    24    25   ar
    41    25    30    1
    42    25    26   ar
    43    26    31    1
    44    32    35    1
    45    32    33    1
    46    32    34    1
    47    36    37    2
    48    36    38    1
    49    38    39    1
    50    39    45    1
    51    39    40    1
    52    39    41    1
    53    41    44    1
    54    41    42    1
    55    41    43    1
    56    45    47    1
    57    45    48    1
    58    45    46    1
    59    49    50   am
    60    49    52    1
    61    50    51    2
    62    50    53    1
    63    53    55    1
    64    53    54    2
    65    54    56    1
    66    54    57    1
    67    58    59    1
    68    58    63    1
    69    59    60    1
    70    59    61    1
    71    59    62    1
    72    63    65    1
    73    63    64    1
    74    63    66    1
    75    66    67    1
    76    66    69    1
    77    66    68    1
    78    69    71    1
    79    69    70    1
    80    69    75    1
    81    71    73    1
    82    71    72    1
    83    71    74    1
    84    75    78    1
    85    75    76    1
    86    75    77    1
    87    79    80    1
    88    80    82    1
    89    80    83    1
    90    80    81    1
