@<TRIPOS>MOLECULE
UNL
 76 80 0 0 0
SMALL
GASTEIGER

@<TRIPOS>ATOM
      1  N         12.2660    6.7170   21.5190 N.pl3   1  UNL1        0.0000
      2  C         12.3400    6.4250   22.8820 C.ar    1  UNL1        0.0000
      3  N         11.8610    5.2610   23.3450 N.ar    1  UNL1        0.0000
      4  C         11.9030    5.0300   24.6770 C.ar    1  UNL1        0.0000
      5  C         12.4390    5.9380   25.5610 C.ar    1  UNL1        0.0000
      6  C         12.9280    7.0910   24.9940 C.ar    1  UNL1        0.0000
      7  N         12.8890    7.3580   23.6730 N.ar    1  UNL1        0.0000
      8  H         12.9120    7.3760   21.1770 H       1  UNL1        0.0000
      9  H         12.4730    5.7670   26.5780 H       1  UNL1        0.0000
     10  H         13.3490    7.7960   25.6180 H       1  UNL1        0.0000
     11  C          9.9800    6.2960   20.6760 C.ar    1  UNL1        0.0000
     12  C         11.3720    6.1740   20.5760 C.ar    1  UNL1        0.0000
     13  C         11.8860    5.5700   19.4130 C.ar    1  UNL1        0.0000
     14  C         11.0730    5.2250   18.3250 C.ar    1  UNL1        0.0000
     15  C          9.6710    5.3440   18.4000 C.ar    1  UNL1        0.0000
     16  C          9.1670    5.8790   19.6030 C.ar    1  UNL1        0.0000
     17  H         12.8970    5.3750   19.3600 H       1  UNL1        0.0000
     18  H          8.1440    5.9700   19.7050 H       1  UNL1        0.0000
     19  N          8.7830    4.9310   17.4180 N.pl3   1  UNL1        0.0000
     20  C          8.4740    3.4930   17.2600 C.3     1  UNL1        0.0000
     21  C          8.7600    3.0350   15.8160 C.3     1  UNL1        0.0000
     22  O          8.1200    3.8640   14.8330 O.3     1  UNL1        0.0000
     23  C          8.5500    5.2290   14.9830 C.3     1  UNL1        0.0000
     24  C          8.1660    5.7570   16.3710 C.3     1  UNL1        0.0000
     25  H          7.4410    3.3300   17.4830 H       1  UNL1        0.0000
     26  H          9.0900    2.9310   17.9300 H       1  UNL1        0.0000
     27  H          8.4080    2.0320   15.6980 H       1  UNL1        0.0000
     28  H          9.8170    3.1040   15.6580 H       1  UNL1        0.0000
     29  H          8.0810    5.8320   14.2330 H       1  UNL1        0.0000
     30  H          9.6140    5.2740   14.8750 H       1  UNL1        0.0000
     31  H          8.5060    6.7670   16.4710 H       1  UNL1        0.0000
     32  H          7.1020    5.7160   16.4760 H       1  UNL1        0.0000
     33  N         11.7010    4.9850   17.0950 N.am    1  UNL1        0.0000
     34  C         11.9860    5.7790   16.0360 C.2     1  UNL1        0.0000
     35  O         12.4030    5.2520   14.9980 O.2     1  UNL1        0.0000
     36  H         11.9920    4.0520   16.9770 H       1  UNL1        0.0000
     37  C         11.9150    7.2480   16.1890 C.2     1  UNL1        0.0000
     38  C         12.9400    8.0010   15.7660 C.2     1  UNL1        0.0000
     39  H         11.0850    7.6880   16.6160 H       1  UNL1        0.0000
     40  H         13.7670    7.5550   15.3400 H       1  UNL1        0.0000
     41  H         12.9020    9.0280   15.8670 H       1  UNL1        0.0000
     42  O          9.2660    6.9270   21.6630 O.3     1  UNL1        0.0000
     43  C          8.4150    6.1270   22.4650 C.3     1  UNL1        0.0000
     44  H          8.6720    5.0960   22.3400 H       1  UNL1        0.0000
     45  H          7.3980    6.2780   22.1690 H       1  UNL1        0.0000
     46  H          8.5320    6.4020   23.4920 H       1  UNL1        0.0000
     47  N         11.3760    3.7940   25.1600 N.ar    1  UNL1        0.0000
     48  N         11.0000    2.7860   24.3390 N.ar    1  UNL1        0.0000
     49  C         10.4720    1.8400   25.1440 C.ar    1  UNL1        0.0000
     50  C         10.5450    2.2470   26.5200 C.ar    1  UNL1        0.0000
     51  C         11.1720    3.4770   26.4790 C.ar    1  UNL1        0.0000
     52  H         11.4380    4.0520   27.2940 H       1  UNL1        0.0000
     53  C          9.9480    0.5900   24.5630 C.ar    1  UNL1        0.0000
     54  C          8.6910    0.0990   24.9590 C.ar    1  UNL1        0.0000
     55  C          8.1570   -1.0610   24.3880 C.ar    1  UNL1        0.0000
     56  C          8.8670   -1.7490   23.4090 C.ar    1  UNL1        0.0000
     57  C         10.1200   -1.2890   23.0160 C.ar    1  UNL1        0.0000
     58  C         10.6600   -0.1390   23.6020 C.ar    1  UNL1        0.0000
     59  H          8.1550    0.6030   25.6830 H       1  UNL1        0.0000
     60  H          7.2340   -1.4060   24.6940 H       1  UNL1        0.0000
     61  H          8.4660   -2.5960   22.9750 H       1  UNL1        0.0000
     62  H         10.6530   -1.7970   22.2920 H       1  UNL1        0.0000
     63  H         11.6000    0.1790   23.3200 H       1  UNL1        0.0000
     64  C         10.0660    1.5760   27.7720 C.3     1  UNL1        0.0000
     65  H         10.6590    1.9210   28.5940 H       1  UNL1        0.0000
     66  H         10.1640    0.5200   27.6320 H       1  UNL1        0.0000
     67  N          8.6550    1.8590   28.0570 N.4     1  UNL1        0.0000
     68  H          8.1900    2.0190   27.1630 H       1  UNL1        0.0000
     69  C          7.9830    0.7310   28.7070 C.3     1  UNL1        0.0000
     70  H          8.5730   -0.1530   28.5850 H       1  UNL1        0.0000
     71  H          7.0220    0.5830   28.2600 H       1  UNL1        0.0000
     72  H          7.8640    0.9400   29.7500 H       1  UNL1        0.0000
     73  C          8.5440    3.0540   28.8970 C.3     1  UNL1        0.0000
     74  H          7.6270    3.0200   29.4460 H       1  UNL1        0.0000
     75  H          8.5590    3.9270   28.2790 H       1  UNL1        0.0000
     76  H          9.3680    3.0870   29.5800 H       1  UNL1        0.0000
@<TRIPOS>BOND
     1     1    12    1
     2     1     8    1
     3     1     2    1
     4     2     3   ar
     5     2     7   ar
     6     3     4   ar
     7     4    47    1
     8     4     5   ar
     9     5     6   ar
    10     5     9    1
    11     6     7   ar
    12     6    10    1
    13    11    16   ar
    14    11    12   ar
    15    11    42    1
    16    12    13   ar
    17    13    14   ar
    18    13    17    1
    19    14    33    1
    20    14    15   ar
    21    15    19    1
    22    15    16   ar
    23    16    18    1
    24    19    24    1
    25    19    20    1
    26    20    21    1
    27    20    25    1
    28    20    26    1
    29    21    22    1
    30    21    28    1
    31    21    27    1
    32    22    23    1
    33    23    29    1
    34    23    30    1
    35    23    24    1
    36    24    31    1
    37    24    32    1
    38    33    34   am
    39    33    36    1
    40    34    35    2
    41    34    37    1
    42    37    38    2
    43    37    39    1
    44    38    40    1
    45    38    41    1
    46    42    43    1
    47    43    45    1
    48    43    44    1
    49    43    46    1
    50    47    48   ar
    51    47    51   ar
    52    48    49   ar
    53    49    53    1
    54    49    50   ar
    55    50    51   ar
    56    50    64    1
    57    51    52    1
    58    53    58   ar
    59    53    54   ar
    60    54    55   ar
    61    54    59    1
    62    55    56   ar
    63    55    60    1
    64    56    61    1
    65    56    57   ar
    66    57    62    1
    67    57    58   ar
    68    58    63    1
    69    64    66    1
    70    64    67    1
    71    64    65    1
    72    67    68    1
    73    67    69    1
    74    67    73    1
    75    69    71    1
    76    69    70    1
    77    69    72    1
    78    73    75    1
    79    73    74    1
    80    73    76    1
