@<TRIPOS>MOLECULE
UNL
 59 62 0 0 0
SMALL
GASTEIGER

@<TRIPOS>ATOM
      1  C         10.3750    6.3990   22.5380 C.ar    1  UNL1        0.0000
      2  C         11.5940    7.0790   22.5200 C.ar    1  UNL1        0.0000
      3  C         12.2290    7.3890   23.7290 C.ar    1  UNL1        0.0000
      4  C         11.7000    7.0060   24.9590 C.ar    1  UNL1        0.0000
      5  N         12.3740    7.3350   26.0620 N.ar    1  UNL1        0.0000
      6  C         11.8740    6.8970   27.2200 C.ar    1  UNL1        0.0000
      7  N         10.7950    6.1380   27.3670 N.ar    1  UNL1        0.0000
      8  C         10.1290    5.7810   26.2600 C.ar    1  UNL1        0.0000
      9  N          9.0860    4.8160   26.3630 N.pl3   1  UNL1        0.0000
     10  C         10.5090    6.2620   24.9860 C.ar    1  UNL1        0.0000
     11  C          9.8340    6.0060   23.7680 C.ar    1  UNL1        0.0000
     12  H         13.1160    7.9150   23.7070 H       1  UNL1        0.0000
     13  H         12.3730    7.1740   28.0810 H       1  UNL1        0.0000
     14  H          8.5100    4.7070   25.5720 H       1  UNL1        0.0000
     15  H          8.9240    5.5200   23.7880 H       1  UNL1        0.0000
     16  C          8.7890    3.9980   27.4770 C.ar    1  UNL1        0.0000
     17  C          8.9140    2.5990   27.4410 C.ar    1  UNL1        0.0000
     18  C          8.6640    1.8190   28.5700 C.ar    1  UNL1        0.0000
     19 CL          8.9250    0.1190   28.5000 Cl      1  UNL1        0.0000
     20  C          8.2170    2.4230   29.7370 C.ar    1  UNL1        0.0000
     21  F          7.9860    1.6990   30.8430 F       1  UNL1        0.0000
     22  C          7.9950    3.7970   29.7740 C.ar    1  UNL1        0.0000
     23  C          8.2690    4.5790   28.6450 C.ar    1  UNL1        0.0000
     24  H          9.1980    2.1390   26.5620 H       1  UNL1        0.0000
     25  H          7.6280    4.2390   30.6330 H       1  UNL1        0.0000
     26  H          8.0870    5.5940   28.6710 H       1  UNL1        0.0000
     27  O          8.5870    7.9580   20.9530 O.2     1  UNL1        0.0000
     28  C          8.8450    6.7930   20.6760 C.2     1  UNL1        0.0000
     29  N          9.7390    5.9910   21.3500 N.am    1  UNL1        0.0000
     30  H          9.9420    5.0990   20.9850 H       1  UNL1        0.0000
     31  C          8.2040    6.1000   19.5300 C.2     1  UNL1        0.0000
     32  C          8.9650    5.5830   18.5510 C.2     1  UNL1        0.0000
     33  H          7.1770    6.0160   19.4850 H       1  UNL1        0.0000
     34  H          9.9840    5.5380   18.7030 H       1  UNL1        0.0000
     35  C          8.4210    5.0660   17.2530 C.3     1  UNL1        0.0000
     36  H          7.7980    5.8220   16.8240 H       1  UNL1        0.0000
     37  H          7.8830    4.1690   17.4760 H       1  UNL1        0.0000
     38  N          9.4600    4.7120   16.2780 N.4     1  UNL1        0.0000
     39  C         10.7770    5.2340   16.6750 C.3     1  UNL1        0.0000
     40  C         11.8670    4.8410   15.6740 C.3     1  UNL1        0.0000
     41  C         11.9320    3.3300   15.4950 C.3     1  UNL1        0.0000
     42  C         10.5570    2.7900   15.1260 C.3     1  UNL1        0.0000
     43  C          9.4990    3.2450   16.1320 C.3     1  UNL1        0.0000
     44  H          9.2290    5.1390   15.3810 H       1  UNL1        0.0000
     45  H         11.0310    4.8400   17.6370 H       1  UNL1        0.0000
     46  H         10.7190    6.3020   16.7010 H       1  UNL1        0.0000
     47  H         12.8120    5.1910   16.0320 H       1  UNL1        0.0000
     48  H         11.6340    5.2840   14.7280 H       1  UNL1        0.0000
     49  H         12.2570    2.8790   16.4090 H       1  UNL1        0.0000
     50  H         12.6220    3.0980   14.7100 H       1  UNL1        0.0000
     51  H         10.5930    1.7210   15.1170 H       1  UNL1        0.0000
     52  H         10.2920    3.1670   14.1610 H       1  UNL1        0.0000
     53  H          8.5400    2.9050   15.8000 H       1  UNL1        0.0000
     54  H          9.7530    2.8280   17.0840 H       1  UNL1        0.0000
     55  O         12.2700    7.4680   21.3910 O.3     1  UNL1        0.0000
     56  C         13.2840    6.5690   20.9430 C.3     1  UNL1        0.0000
     57  H         13.9620    7.0880   20.2990 H       1  UNL1        0.0000
     58  H         12.8310    5.7600   20.4080 H       1  UNL1        0.0000
     59  H         13.8160    6.1840   21.7880 H       1  UNL1        0.0000
@<TRIPOS>BOND
     1     1    29    1
     2     1     2   ar
     3     1    11   ar
     4     2    55    1
     5     2     3   ar
     6     3    12    1
     7     3     4   ar
     8     4    10   ar
     9     4     5   ar
    10     5     6   ar
    11     6     7   ar
    12     6    13    1
    13     7     8   ar
    14     8    10   ar
    15     8     9    1
    16     9    14    1
    17     9    16    1
    18    10    11   ar
    19    11    15    1
    20    16    17   ar
    21    16    23   ar
    22    17    24    1
    23    17    18   ar
    24    18    19    1
    25    18    20   ar
    26    20    22   ar
    27    20    21    1
    28    22    23   ar
    29    22    25    1
    30    23    26    1
    31    27    28    2
    32    28    31    1
    33    28    29   am
    34    29    30    1
    35    31    32    2
    36    31    33    1
    37    32    35    1
    38    32    34    1
    39    35    38    1
    40    35    36    1
    41    35    37    1
    42    38    44    1
    43    38    43    1
    44    38    39    1
    45    39    40    1
    46    39    46    1
    47    39    45    1
    48    40    48    1
    49    40    41    1
    50    40    47    1
    51    41    50    1
    52    41    42    1
    53    41    49    1
    54    42    52    1
    55    42    51    1
    56    42    43    1
    57    43    53    1
    58    43    54    1
    59    55    56    1
    60    56    57    1
    61    56    58    1
    62    56    59    1
