@<TRIPOS>MOLECULE
UNL
 64 68 0 0 0
SMALL
GASTEIGER

@<TRIPOS>ATOM
      1  C          9.2610    5.0120   24.3820 C.3     1  UNL1        0.0000
      2  C          9.0570    5.8250   25.6870 C.3     1  UNL1        0.0000
      3  C          8.0380    5.1870   26.6240 C.3     1  UNL1        0.0000
      4  N          8.4570    3.8340   26.9200 N.pl3   1  UNL1        0.0000
      5  C          8.8470    3.0330   25.9010 C.ar    1  UNL1        0.0000
      6  C          8.9980    1.6640   25.7870 C.ar    1  UNL1        0.0000
      7  C          9.4110    1.4600   24.4270 C.ar    1  UNL1        0.0000
      8  N          9.5250    2.6350   23.7760 N.ar    1  UNL1        0.0000
      9  N          9.2360    3.5670   24.6980 N.ar    1  UNL1        0.0000
     10  H          8.4570    5.2250   23.7100 H       1  UNL1        0.0000
     11  H          8.7180    6.8060   25.4290 H       1  UNL1        0.0000
     12  H          9.9960    5.8530   26.2000 H       1  UNL1        0.0000
     13  H          7.0770    5.1720   26.1540 H       1  UNL1        0.0000
     14  H          7.9740    5.7540   27.5310 H       1  UNL1        0.0000
     15  H          8.4580    3.5010   27.8470 H       1  UNL1        0.0000
     16  C         13.7840    6.6290   26.3150 C.2     1  UNL1        0.0000
     17  N         12.7160    6.3000   25.4840 N.am    1  UNL1        0.0000
     18  C         12.4520    4.8790   25.2900 C.3     1  UNL1        0.0000
     19  C         11.8280    4.5880   23.9270 C.3     1  UNL1        0.0000
     20  C         10.5710    5.4360   23.6250 C.3     1  UNL1        0.0000
     21  C         10.9660    6.9150   23.8430 C.3     1  UNL1        0.0000
     22  C         11.5830    7.1850   25.2140 C.3     1  UNL1        0.0000
     23  O         14.5090    5.7770   26.8390 O.2     1  UNL1        0.0000
     24  H         11.7810    4.5450   26.0540 H       1  UNL1        0.0000
     25  H         13.3870    4.3610   25.3390 H       1  UNL1        0.0000
     26  H         11.5540    3.5550   23.8940 H       1  UNL1        0.0000
     27  H         12.5590    4.8410   23.1890 H       1  UNL1        0.0000
     28  H         10.2800    5.2640   22.6100 H       1  UNL1        0.0000
     29  H         10.0870    7.5180   23.7430 H       1  UNL1        0.0000
     30  H         11.7070    7.1540   23.1110 H       1  UNL1        0.0000
     31  H         11.9200    8.1990   25.2470 H       1  UNL1        0.0000
     32  H         10.8340    7.0020   25.9570 H       1  UNL1        0.0000
     33  C         14.8230    8.4630   27.5800 C.2     1  UNL1        0.0000
     34  C         14.0640    8.0730   26.5440 C.2     1  UNL1        0.0000
     35  H         15.0130    9.4670   27.7320 H       1  UNL1        0.0000
     36  H         15.2180    7.7600   28.2240 H       1  UNL1        0.0000
     37  H         13.6720    8.7790   25.9020 H       1  UNL1        0.0000
     38  C          9.6390    0.1960   23.7110 C.ar    1  UNL1        0.0000
     39  C          8.5600   -0.5700   23.2500 C.ar    1  UNL1        0.0000
     40  C          8.7660   -1.7920   22.6070 C.ar    1  UNL1        0.0000
     41  C         10.0590   -2.2260   22.3200 C.ar    1  UNL1        0.0000
     42  C         11.1450   -1.4720   22.7680 C.ar    1  UNL1        0.0000
     43  C         10.9380   -0.2700   23.4600 C.ar    1  UNL1        0.0000
     44  H          7.5980   -0.2240   23.3890 H       1  UNL1        0.0000
     45  H          7.9570   -2.3760   22.3440 H       1  UNL1        0.0000
     46  H         12.1070   -1.8010   22.5880 H       1  UNL1        0.0000
     47  H         11.7500    0.2770   23.7870 H       1  UNL1        0.0000
     48  O         10.3540   -3.3960   21.6560 O.3     1  UNL1        0.0000
     49  C         10.8530   -3.3490   20.3720 C.ar    1  UNL1        0.0000
     50  C         10.4100   -2.4590   19.3890 C.ar    1  UNL1        0.0000
     51  C         10.9530   -2.5040   18.1040 C.ar    1  UNL1        0.0000
     52  C         11.9850   -3.3950   17.8140 C.ar    1  UNL1        0.0000
     53  C         12.4760   -4.2380   18.8110 C.ar    1  UNL1        0.0000
     54  C         11.9090   -4.2180   20.0860 C.ar    1  UNL1        0.0000
     55  H          9.6770   -1.7680   19.6140 H       1  UNL1        0.0000
     56  H         10.5910   -1.8770   17.3690 H       1  UNL1        0.0000
     57  H         12.3870   -3.4290   16.8640 H       1  UNL1        0.0000
     58  H         13.2590   -4.8790   18.6040 H       1  UNL1        0.0000
     59  H         12.2720   -4.8460   20.8210 H       1  UNL1        0.0000
     60  C          8.7700    0.6820   26.8310 C.2     1  UNL1        0.0000
     61  N          9.4600    0.8910   27.9940 N.am    1  UNL1        0.0000
     62  O          7.9830   -0.2550   26.7490 O.2     1  UNL1        0.0000
     63  H         10.0930    1.6430   28.0630 H       1  UNL1        0.0000
     64  H          9.3250    0.2900   28.7620 H       1  UNL1        0.0000
@<TRIPOS>BOND
     1     1    20    1
     2     1    10    1
     3     1     9    1
     4     1     2    1
     5     2    11    1
     6     2    12    1
     7     2     3    1
     8     3    13    1
     9     3     4    1
    10     3    14    1
    11     4     5    1
    12     4    15    1
    13     5     9   ar
    14     5     6   ar
    15     6     7   ar
    16     6    60    1
    17     7    38    1
    18     7     8   ar
    19     8     9   ar
    20    16    17   am
    21    16    34    1
    22    16    23    2
    23    17    22    1
    24    17    18    1
    25    18    19    1
    26    18    25    1
    27    18    24    1
    28    19    27    1
    29    19    20    1
    30    19    26    1
    31    20    28    1
    32    20    21    1
    33    21    30    1
    34    21    29    1
    35    21    22    1
    36    22    31    1
    37    22    32    1
    38    33    34    2
    39    33    35    1
    40    33    36    1
    41    34    37    1
    42    38    39   ar
    43    38    43   ar
    44    39    40   ar
    45    39    44    1
    46    40    41   ar
    47    40    45    1
    48    41    48    1
    49    41    42   ar
    50    42    46    1
    51    42    43   ar
    52    43    47    1
    53    48    49    1
    54    49    50   ar
    55    49    54   ar
    56    50    51   ar
    57    50    55    1
    58    51    56    1
    59    51    52   ar
    60    52    57    1
    61    52    53   ar
    62    53    58    1
    63    53    54   ar
    64    54    59    1
    65    60    62    2
    66    60    61   am
    67    61    63    1
    68    61    64    1
