@<TRIPOS>MOLECULE
UNL
 70 73 0 0 0
SMALL
GASTEIGER

@<TRIPOS>ATOM
      1  C          9.1610    2.8920   27.9890 C.ar    1  UNL1        0.0000
      2  C          9.7280    3.3530   26.7810 C.ar    1  UNL1        0.0000
      3  C          9.6210    4.7500   26.4480 C.ar    1  UNL1        0.0000
      4  C         10.1810    5.4030   25.3060 C.ar    1  UNL1        0.0000
      5  C         10.0270    6.7850   25.0540 C.ar    1  UNL1        0.0000
      6  C          9.3580    7.5680   25.9940 C.ar    1  UNL1        0.0000
      7  C          8.8210    6.9300   27.1230 C.ar    1  UNL1        0.0000
      8  C          8.9460    5.5720   27.3720 C.ar    1  UNL1        0.0000
      9  N          8.4260    5.1190   28.5240 N.ar    1  UNL1        0.0000
     10  C          8.5450    3.8080   28.8160 C.ar    1  UNL1        0.0000
     11  H         10.7220    4.8380   24.6330 H       1  UNL1        0.0000
     12  H          8.3050    7.5060   27.8080 H       1  UNL1        0.0000
     13  H          8.1530    3.4700   29.7090 H       1  UNL1        0.0000
     14  N         10.7820    7.3000   23.9900 N.am    1  UNL1        0.0000
     15  C         12.0770    7.0820   23.6220 C.2     1  UNL1        0.0000
     16  O         12.4010    7.3990   22.4760 O.2     1  UNL1        0.0000
     17  H         10.2920    7.9250   23.4090 H       1  UNL1        0.0000
     18  C         13.0600    6.4970   24.5700 C.2     1  UNL1        0.0000
     19  C         13.3260    7.1950   25.6930 C.2     1  UNL1        0.0000
     20  H         13.5200    5.5930   24.3770 H       1  UNL1        0.0000
     21  H         12.7820    8.0610   25.8290 H       1  UNL1        0.0000
     22  C         14.3180    6.8630   26.7670 C.3     1  UNL1        0.0000
     23  H         15.3050    6.8910   26.3560 H       1  UNL1        0.0000
     24  H         14.1020    5.8860   27.1460 H       1  UNL1        0.0000
     25  N         14.2270    7.8280   27.8710 N.4     1  UNL1        0.0000
     26  H         14.2990    7.3020   28.7410 H       1  UNL1        0.0000
     27  C         15.3320    8.7870   27.8200 C.3     1  UNL1        0.0000
     28  H         15.8390    8.6980   26.8810 H       1  UNL1        0.0000
     29  H         16.0180    8.5840   28.6150 H       1  UNL1        0.0000
     30  H         14.9480    9.7800   27.9250 H       1  UNL1        0.0000
     31  C         12.9390    8.5190   27.8810 C.3     1  UNL1        0.0000
     32  H         12.8930    9.1720   28.7280 H       1  UNL1        0.0000
     33  H         12.1490    7.8000   27.9410 H       1  UNL1        0.0000
     34  H         12.8340    9.0920   26.9840 H       1  UNL1        0.0000
     35  N          9.2250    0.4060   28.7260 N.1     1  UNL1        0.0000
     36  C          9.2120    1.5250   28.3970 C.1     1  UNL1        0.0000
     37  N         10.3710    2.4000   25.9310 N.pl3   1  UNL1        0.0000
     38  H         11.3330    2.2740   26.1020 H       1  UNL1        0.0000
     39  C          9.8400    1.6100   24.8850 C.ar    1  UNL1        0.0000
     40  C         10.6350    0.5720   24.3660 C.ar    1  UNL1        0.0000
     41  C         10.2400   -0.1760   23.2470 C.ar    1  UNL1        0.0000
     42 CL         11.2540   -1.5130   22.8270 Cl      1  UNL1        0.0000
     43  C          9.0550    0.1440   22.5780 C.ar    1  UNL1        0.0000
     44  C          8.2340    1.1370   23.1250 C.ar    1  UNL1        0.0000
     45  C          8.6130    1.8500   24.2700 C.ar    1  UNL1        0.0000
     46  H         11.5360    0.3560   24.8210 H       1  UNL1        0.0000
     47  H          7.3290    1.3480   22.6750 H       1  UNL1        0.0000
     48  H          7.9770    2.5610   24.6630 H       1  UNL1        0.0000
     49  O          8.5400   -0.4390   21.4510 O.3     1  UNL1        0.0000
     50  C          8.4950    0.3750   20.2700 C.3     1  UNL1        0.0000
     51  H          8.9820    1.3070   20.4670 H       1  UNL1        0.0000
     52  H          7.4710    0.5400   20.0050 H       1  UNL1        0.0000
     53  C          9.1900   -0.3170   19.1170 C.ar    1  UNL1        0.0000
     54  N          8.9900    0.1990   17.8750 N.ar    1  UNL1        0.0000
     55  C          9.6230   -0.3950   16.8410 C.ar    1  UNL1        0.0000
     56  C         10.4630   -1.4850   16.9770 C.ar    1  UNL1        0.0000
     57  C         10.6720   -1.9960   18.2530 C.ar    1  UNL1        0.0000
     58  C         10.0310   -1.4050   19.3400 C.ar    1  UNL1        0.0000
     59  H          9.4710   -0.0140   15.8940 H       1  UNL1        0.0000
     60  H         10.9220   -1.9080   16.1560 H       1  UNL1        0.0000
     61  H         11.2950   -2.8060   18.3940 H       1  UNL1        0.0000
     62  H         10.1770   -1.7680   20.2950 H       1  UNL1        0.0000
     63  O          9.1090    8.9110   26.0120 O.3     1  UNL1        0.0000
     64  C          8.3680    9.5060   27.0700 C.3     1  UNL1        0.0000
     65  H          7.8400    8.7510   27.6140 H       1  UNL1        0.0000
     66  H          7.6560   10.2030   26.6830 H       1  UNL1        0.0000
     67  C          9.3570   10.2110   27.9910 C.3     1  UNL1        0.0000
     68  H          9.5460   11.1980   27.6230 H       1  UNL1        0.0000
     69  H         10.2740    9.6600   28.0180 H       1  UNL1        0.0000
     70  H          8.9480   10.2700   28.9760 H       1  UNL1        0.0000
@<TRIPOS>BOND
     1     1     2   ar
     2     1    36    1
     3     1    10   ar
     4     2    37    1
     5     2     3   ar
     6     3     4   ar
     7     3     8   ar
     8     4    11    1
     9     4     5   ar
    10     5    14    1
    11     5     6   ar
    12     6    63    1
    13     6     7   ar
    14     7     8   ar
    15     7    12    1
    16     8     9   ar
    17     9    10   ar
    18    10    13    1
    19    14    17    1
    20    14    15   am
    21    15    16    2
    22    15    18    1
    23    18    20    1
    24    18    19    2
    25    19    21    1
    26    19    22    1
    27    22    23    1
    28    22    24    1
    29    22    25    1
    30    25    27    1
    31    25    31    1
    32    25    26    1
    33    27    28    1
    34    27    30    1
    35    27    29    1
    36    31    34    1
    37    31    33    1
    38    31    32    1
    39    35    36    3
    40    37    39    1
    41    37    38    1
    42    39    45   ar
    43    39    40   ar
    44    40    41   ar
    45    40    46    1
    46    41    43   ar
    47    41    42    1
    48    43    49    1
    49    43    44   ar
    50    44    47    1
    51    44    45   ar
    52    45    48    1
    53    49    50    1
    54    50    53    1
    55    50    52    1
    56    50    51    1
    57    53    54   ar
    58    53    58   ar
    59    54    55   ar
    60    55    59    1
    61    55    56   ar
    62    56    60    1
    63    56    57   ar
    64    57    61    1
    65    57    58   ar
    66    58    62    1
    67    63    64    1
    68    64    66    1
    69    64    65    1
    70    64    67    1
    71    67    68    1
    72    67    69    1
    73    67    70    1
