@<TRIPOS>MOLECULE
UNL
 69 71 0 0 0
SMALL
GASTEIGER

@<TRIPOS>ATOM
      1  C          9.1890    6.1770   23.4680 C.3     1  UNL1        0.0000
      2  H          8.2550    6.6680   23.2870 H       1  UNL1        0.0000
      3  C          9.0220    4.6400   23.5560 C.2     1  UNL1        0.0000
      4  O          8.2850    4.0230   22.7900 O.2     1  UNL1        0.0000
      5  N          9.7580    4.0160   24.5390 N.am    1  UNL1        0.0000
      6  H         10.3440    4.5720   25.1020 H       1  UNL1        0.0000
      7  C          9.7200    2.5660   24.7970 C.3     1  UNL1        0.0000
      8  H          8.7140    2.2430   24.6320 H       1  UNL1        0.0000
      9  C         10.5630    1.7200   23.8150 C.3     1  UNL1        0.0000
     10  H         11.5580    1.6550   24.2060 H       1  UNL1        0.0000
     11  H         10.5050    2.2200   22.8710 H       1  UNL1        0.0000
     12  C         10.0610    0.3130   23.5750 C.ar    1  UNL1        0.0000
     13  C         10.8990   -0.6500   22.9970 C.ar    1  UNL1        0.0000
     14  C         10.4170   -1.9270   22.7040 C.ar    1  UNL1        0.0000
     15  C          9.0980   -2.2610   23.0040 C.ar    1  UNL1        0.0000
     16  C          8.2710   -1.3310   23.6250 C.ar    1  UNL1        0.0000
     17  C          8.7570   -0.0600   23.9230 C.ar    1  UNL1        0.0000
     18  H         11.8820   -0.4140   22.7870 H       1  UNL1        0.0000
     19  H         11.0380   -2.6230   22.2640 H       1  UNL1        0.0000
     20  H          8.7360   -3.1990   22.7670 H       1  UNL1        0.0000
     21  H          7.2990   -1.5820   23.8630 H       1  UNL1        0.0000
     22  H          8.1470    0.6160   24.4090 H       1  UNL1        0.0000
     23  C         10.1330    2.3070   26.2640 C.2     1  UNL1        0.0000
     24  O         11.3130    2.2310   26.6040 O.2     1  UNL1        0.0000
     25  C          9.0220    2.1690   27.2800 C.3     1  UNL1        0.0000
     26  C          8.8410    3.2830   28.3000 C.3     1  UNL1        0.0000
     27  O          7.9900    3.1770   27.1600 O.3     1  UNL1        0.0000
     28  H          9.5570    4.0760   28.3640 H       1  UNL1        0.0000
     29  H          8.6970    3.3340   29.3580 H       1  UNL1        0.0000
     30  C          8.4190    0.8250   27.5710 C.3     1  UNL1        0.0000
     31  H          8.7160    0.5030   28.5470 H       1  UNL1        0.0000
     32  H          8.7560    0.1160   26.8430 H       1  UNL1        0.0000
     33  H          7.3510    0.8960   27.5300 H       1  UNL1        0.0000
     34  C          9.0290    7.6030   25.5160 C.2     1  UNL1        0.0000
     35  O          7.9830    8.1370   25.1440 O.2     1  UNL1        0.0000
     36  N          9.7010    6.6800   24.7480 N.am    1  UNL1        0.0000
     37  H         10.5680    6.3420   25.0730 H       1  UNL1        0.0000
     38  C          9.6710    7.9380   26.8820 C.3     1  UNL1        0.0000
     39  H          9.3400    7.2670   27.6470 H       1  UNL1        0.0000
     40  C         11.8160    6.6410   26.8210 C.2     1  UNL1        0.0000
     41  O         11.2380    5.5820   27.0530 O.2     1  UNL1        0.0000
     42  N         11.1230    7.8240   26.7220 N.am    1  UNL1        0.0000
     43  H         11.6340    8.6440   26.5320 H       1  UNL1        0.0000
     44  C         15.5870    6.5460   25.9840 C.ar    1  UNL1        0.0000
     45  N         15.4570    7.5040   26.8790 N.ar    1  UNL1        0.0000
     46  C         14.1300    7.6090   27.2540 C.ar    1  UNL1        0.0000
     47  C         13.2540    6.7320   26.6460 C.ar    1  UNL1        0.0000
     48  S         14.1370    5.7210   25.5730 S.2     1  UNL1        0.0000
     49  H         13.8130    8.3040   27.9480 H       1  UNL1        0.0000
     50  C         16.8700    6.1640   25.3340 C.3     1  UNL1        0.0000
     51  H         16.8120    6.3660   24.2840 H       1  UNL1        0.0000
     52  H         17.0530    5.1220   25.4870 H       1  UNL1        0.0000
     53  H         17.6700    6.7330   25.7610 H       1  UNL1        0.0000
     54  C          9.2650    9.3560   27.3060 C.3     1  UNL1        0.0000
     55  H          8.4080    9.3030   27.9440 H       1  UNL1        0.0000
     56  H          9.0330    9.9290   26.4330 H       1  UNL1        0.0000
     57  O         10.3430    9.9870   28.0090 O.3     1  UNL1        0.0000
     58  C          9.9360   10.4320   29.2980 C.3     1  UNL1        0.0000
     59  H         10.8000   10.6660   29.8840 H       1  UNL1        0.0000
     60  H          9.3730    9.6610   29.7810 H       1  UNL1        0.0000
     61  H          9.3270   11.3060   29.1970 H       1  UNL1        0.0000
     62  C         10.1300    6.4800   22.2990 C.3     1  UNL1        0.0000
     63  H          9.5580    6.8250   21.4630 H       1  UNL1        0.0000
     64  H         10.6590    5.5890   22.0350 H       1  UNL1        0.0000
     65  O         11.0740    7.4910   22.6760 O.3     1  UNL1        0.0000
     66  C         12.4010    7.0950   22.3520 C.3     1  UNL1        0.0000
     67  H         12.3860    6.1110   21.9310 H       1  UNL1        0.0000
     68  H         12.9990    7.0950   23.2390 H       1  UNL1        0.0000
     69  H         12.8140    7.7810   21.6420 H       1  UNL1        0.0000
@<TRIPOS>BOND
     1     1    62    1
     2     1     2    1
     3     1     3    1
     4     1    36    1
     5     3     4    2
     6     3     5   am
     7     5     7    1
     8     5     6    1
     9     7     9    1
    10     7     8    1
    11     7    23    1
    12     9    11    1
    13     9    12    1
    14     9    10    1
    15    12    13   ar
    16    12    17   ar
    17    13    14   ar
    18    13    18    1
    19    14    19    1
    20    14    15   ar
    21    15    20    1
    22    15    16   ar
    23    16    21    1
    24    16    17   ar
    25    17    22    1
    26    23    24    2
    27    23    25    1
    28    25    27    1
    29    25    30    1
    30    25    26    1
    31    26    27    1
    32    26    28    1
    33    26    29    1
    34    30    32    1
    35    30    33    1
    36    30    31    1
    37    34    36   am
    38    34    35    2
    39    34    38    1
    40    36    37    1
    41    38    42    1
    42    38    54    1
    43    38    39    1
    44    40    47    1
    45    40    42   am
    46    40    41    2
    47    42    43    1
    48    44    50    1
    49    44    48   ar
    50    44    45   ar
    51    45    46   ar
    52    46    47   ar
    53    46    49    1
    54    47    48   ar
    55    50    51    1
    56    50    52    1
    57    50    53    1
    58    54    56    1
    59    54    55    1
    60    54    57    1
    61    57    58    1
    62    58    61    1
    63    58    60    1
    64    58    59    1
    65    62    63    1
    66    62    64    1
    67    62    65    1
    68    65    66    1
    69    66    69    1
    70    66    67    1
    71    66    68    1
