@<TRIPOS>MOLECULE
UNL
 62 65 0 0 0
SMALL
GASTEIGER

@<TRIPOS>ATOM
      1  N         12.4560    5.1810   26.2580 N.pl3   1  UNL1       -0.3190
      2  C         11.8240    5.0570   24.9860 C.3     1  UNL1        0.1424
      3  N         12.1050    6.0120   24.0710 N.2     1  UNL1       -0.2493
      4  C         11.5940    5.8770   22.8530 C.2     1  UNL1        0.0825
      5  N         10.8520    4.8540   22.4460 N.pl3   1  UNL1       -0.3053
      6  C         10.5750    3.9180   23.3500 C.ar    1  UNL1        0.0424
      7  C         10.9870    3.9540   24.6950 C.ar    1  UNL1        0.0176
      8  C         10.5450    2.9060   25.5780 C.ar    1  UNL1       -0.0284
      9  C          9.7990    1.8310   25.0810 C.ar    1  UNL1        0.0763
     10  C          9.5160    1.7800   23.7000 C.ar    1  UNL1        0.1439
     11  C          9.8700    2.8340   22.8760 C.ar    1  UNL1        0.0035
     12  H         12.3680    4.4390   26.8990 H       1  UNL1        0.1484
     13  H         11.7870    6.6250   22.1700 H       1  UNL1        0.0997
     14  H         10.7790    2.9480   26.5830 H       1  UNL1        0.0642
     15  H          9.5990    2.8070   21.8810 H       1  UNL1        0.0673
     16 CL         17.0260    7.5530   26.5620 Cl      1  UNL1       -0.0805
     17  C         15.3210    7.5150   26.8200 C.ar    1  UNL1        0.0778
     18  C         14.6690    8.6170   27.3670 C.ar    1  UNL1        0.1417
     19  F         15.3470    9.7240   27.7030 F       1  UNL1       -0.2040
     20  C         13.2980    8.5860   27.5760 C.ar    1  UNL1       -0.0233
     21  C         12.5770    7.4420   27.2270 C.ar    1  UNL1       -0.0380
     22  C         13.2070    6.3270   26.6440 C.ar    1  UNL1        0.0304
     23  C         14.5970    6.3680   26.4650 C.ar    1  UNL1       -0.0197
     24  H         12.8150    9.4010   27.9850 H       1  UNL1        0.0647
     25  H         11.5600    7.4130   27.4010 H       1  UNL1        0.0637
     26  H         15.0890    5.5510   26.0700 H       1  UNL1        0.0651
     27  N          9.3440    0.7250   25.8150 N.am    1  UNL1       -0.2790
     28  C          8.6220    0.5100   26.9460 C.2     1  UNL1        0.2408
     29  O          8.4200   -0.6620   27.2690 O.2     1  UNL1       -0.2705
     30  H          9.6230   -0.1220   25.3990 H       1  UNL1        0.1552
     31  C          7.9830    1.6160   27.6940 C.2     1  UNL1       -0.0052
     32  C          8.7100    2.2330   28.6470 C.2     1  UNL1       -0.0958
     33  H          7.0130    1.9050   27.4920 H       1  UNL1        0.0666
     34  H          9.6510    1.8430   28.8100 H       1  UNL1        0.0555
     35  C          8.3400    3.4100   29.5020 C.3     1  UNL1       -0.0718
     36  H          9.0110    3.4410   30.3350 H       1  UNL1        0.0101
     37  H          7.3200    3.2660   29.7910 H       1  UNL1        0.0101
     38  N          8.4000    4.7040   28.8160 N.4     1  UNL1        0.3783
     39  H          7.7600    4.6710   28.0230 H       1  UNL1       -0.0822
     40  C          7.9830    5.7880   29.7110 C.3     1  UNL1       -0.1032
     41  H          8.7710    6.0030   30.4010 H       1  UNL1        0.0023
     42  H          7.1090    5.4880   30.2510 H       1  UNL1        0.0023
     43  H          7.7650    6.6620   29.1350 H       1  UNL1        0.0023
     44  C          9.7570    4.9600   28.3290 C.3     1  UNL1       -0.1032
     45  H         10.3520    5.3560   29.1250 H       1  UNL1        0.0023
     46  H          9.7200    5.6670   27.5260 H       1  UNL1        0.0023
     47  H         10.1900    4.0470   27.9800 H       1  UNL1        0.0023
     48  O          8.8900    0.6370   23.2560 O.3     1  UNL1       -0.4845
     49  C          9.5790   -0.1830   22.3090 C.3     1  UNL1        0.1255
     50  C          8.6310   -1.0830   21.5350 C.3     1  UNL1        0.0846
     51  O          9.2890   -2.3340   21.3350 O.3     1  UNL1       -0.3760
     52  C         10.3180   -2.4710   22.3160 C.3     1  UNL1        0.0512
     53  C         10.4720   -1.1570   23.0490 C.3     1  UNL1        0.0099
     54  H         10.1020    0.4880   21.6600 H       1  UNL1        0.0757
     55  H          8.3980   -0.6390   20.5890 H       1  UNL1        0.0597
     56  H          7.7190   -1.2210   22.0760 H       1  UNL1        0.0597
     57  H         11.2390   -2.7260   21.8370 H       1  UNL1        0.0561
     58  H         10.0580   -3.2440   23.0090 H       1  UNL1        0.0561
     59  H         10.1560   -1.2550   24.0680 H       1  UNL1        0.0324
     60  H         11.4890   -0.8280   23.0720 H       1  UNL1        0.0324
     61 H          10.7943    4.8201   24.8170 H       1  UNL1        0.0805
     62 H          10.5228    4.7911   21.5203 H       1  UNL1        0.1530
@<TRIPOS>BOND
     1     1     2    1
     2     1    22    1
     3     1    12    1
     4     2     3    1
     5     2     7    1
     6     2    61    1
     7     3     4    2
     8     4    13    1
     9     4     5    1
    10     5     6    1
    11     5    62    1
    12     6    11   ar
    13     6     7   ar
    14     7     8   ar
    15     8     9   ar
    16     8    14    1
    17     9    10   ar
    18     9    27    1
    19    10    11   ar
    20    10    48    1
    21    11    15    1
    22    16    17    1
    23    17    23   ar
    24    17    18   ar
    25    18    20   ar
    26    18    19    1
    27    20    21   ar
    28    20    24    1
    29    21    22   ar
    30    21    25    1
    31    22    23   ar
    32    23    26    1
    33    27    30    1
    34    27    28   am
    35    28    29    2
    36    28    31    1
    37    31    33    1
    38    31    32    2
    39    32    34    1
    40    32    35    1
    41    35    38    1
    42    35    37    1
    43    35    36    1
    44    38    39    1
    45    38    44    1
    46    38    40    1
    47    40    43    1
    48    40    42    1
    49    40    41    1
    50    44    46    1
    51    44    47    1
    52    44    45    1
    53    48    49    1
    54    49    50    1
    55    49    54    1
    56    49    53    1
    57    50    55    1
    58    50    51    1
    59    50    56    1
    60    51    52    1
    61    52    57    1
    62    52    58    1
    63    52    53    1
    64    53    60    1
    65    53    59    1
