@<TRIPOS>MOLECULE
UNL
 71 75 0 0 0
SMALL
GASTEIGER

@<TRIPOS>ATOM
      1  C         11.9260    5.8920   23.1540 C.ar    1  UNL1        0.0000
      2  N         11.2240    4.7220   23.3000 N.ar    1  UNL1        0.0000
      3  C         10.5470    4.2190   22.2180 C.ar    1  UNL1        0.0000
      4  N          9.6960    3.1030   22.3480 N.ar    1  UNL1        0.0000
      5  C          8.8490    2.7090   21.3130 C.ar    1  UNL1        0.0000
      6  N          8.9940    3.2940   20.0720 N.ar    1  UNL1        0.0000
      7  C          9.8330    4.2580   19.8630 C.ar    1  UNL1        0.0000
      8  N          9.9460    4.8250   18.6020 N.pl3   1  UNL1        0.0000
      9  C         11.1580    4.7410   17.7480 C.3     1  UNL1        0.0000
     10  C         11.5320    6.1370   17.1700 C.3     1  UNL1        0.0000
     11  N         10.3660    6.8880   16.6700 N.am    1  UNL1        0.0000
     12  C         10.4450    7.4640   15.4150 C.2     1  UNL1        0.0000
     13  O         11.4400    7.3560   14.7040 O.2     1  UNL1        0.0000
     14  C          9.2330    6.9340   17.6090 C.3     1  UNL1        0.0000
     15  C          8.7970    5.5150   18.0050 C.3     1  UNL1        0.0000
     16  O          7.9830    1.8510   21.4860 O.2     1  UNL1        0.0000
     17  C         10.6070    4.8350   20.9790 C.ar    1  UNL1        0.0000
     18  C         11.2910    6.0350   20.8460 C.ar    1  UNL1        0.0000
     19  C         11.9380    6.5730   21.9380 C.ar    1  UNL1        0.0000
     20  F         12.4860    7.7860   21.7980 F       1  UNL1        0.0000
     21  H         11.9600    4.3960   18.3670 H       1  UNL1        0.0000
     22  H         12.2190    5.9970   16.3620 H       1  UNL1        0.0000
     23  H         11.9620    6.7080   17.9670 H       1  UNL1        0.0000
     24  H          8.4120    7.4370   17.1440 H       1  UNL1        0.0000
     25  H          9.5390    7.4580   18.4910 H       1  UNL1        0.0000
     26  H          7.9990    5.5680   18.7160 H       1  UNL1        0.0000
     27  H          8.4560    4.9810   17.1430 H       1  UNL1        0.0000
     28  H         11.3150    6.5230   19.9350 H       1  UNL1        0.0000
     29  C         13.8710    6.1780   24.7400 C.ar    1  UNL1        0.0000
     30  C         12.5430    6.4580   24.3700 C.ar    1  UNL1        0.0000
     31  C         11.8080    7.2500   25.2700 C.ar    1  UNL1        0.0000
     32  F         10.5650    7.6560   24.9610 F       1  UNL1        0.0000
     33  C         12.3190    7.6620   26.5010 C.ar    1  UNL1        0.0000
     34  C         13.6180    7.3170   26.8580 C.ar    1  UNL1        0.0000
     35  C         14.3990    6.5880   25.9670 C.ar    1  UNL1        0.0000
     36  H         11.7360    8.2190   27.1450 H       1  UNL1        0.0000
     37  H         13.9980    7.6010   27.7740 H       1  UNL1        0.0000
     38  H         15.3730    6.3500   26.2130 H       1  UNL1        0.0000
     39  O         14.7230    5.4720   23.9310 O.3     1  UNL1        0.0000
     40  H         15.6450    5.6390   23.9610 H       1  UNL1        0.0000
     41  C          9.6760    2.4220   23.5970 C.ar    1  UNL1        0.0000
     42  C         10.0810    1.0730   23.6880 C.ar    1  UNL1        0.0000
     43  N         10.1560    0.4190   24.8800 N.ar    1  UNL1        0.0000
     44  C          9.7820    1.0830   25.9910 C.ar    1  UNL1        0.0000
     45  C          9.3250    2.3870   25.9860 C.ar    1  UNL1        0.0000
     46  C          9.2540    3.0760   24.7720 C.ar    1  UNL1        0.0000
     47  H          9.8430    0.5910   26.8960 H       1  UNL1        0.0000
     48  H          9.0380    2.8450   26.8650 H       1  UNL1        0.0000
     49  C          8.7060    4.4770   24.7670 C.3     1  UNL1        0.0000
     50  H          7.6550    4.4480   24.5700 H       1  UNL1        0.0000
     51  H          9.1960    5.0490   24.0060 H       1  UNL1        0.0000
     52  H          8.8770    4.9310   25.7200 H       1  UNL1        0.0000
     53  C         10.5260    0.2630   22.4790 C.3     1  UNL1        0.0000
     54  H         11.0490    0.9290   21.8260 H       1  UNL1        0.0000
     55  C         11.4550   -0.8690   22.9190 C.3     1  UNL1        0.0000
     56  H         11.2720   -1.7350   22.3170 H       1  UNL1        0.0000
     57  H         11.2700   -1.1030   23.9470 H       1  UNL1        0.0000
     58  H         12.4730   -0.5610   22.8010 H       1  UNL1        0.0000
     59  C          9.3380   -0.3160   21.6970 C.3     1  UNL1        0.0000
     60  H          8.5420    0.3990   21.6770 H       1  UNL1        0.0000
     61  H          9.0000   -1.2120   22.1720 H       1  UNL1        0.0000
     62  H          9.6440   -0.5360   20.6960 H       1  UNL1        0.0000
     63  C          9.2670    8.2350   14.9220 C.2     1  UNL1        0.0000
     64  C          9.2770    8.8110   13.7150 C.2     1  UNL1        0.0000
     65  H          8.4320    8.3240   15.5210 H       1  UNL1        0.0000
     66  H         10.1080    8.7260   13.1090 H       1  UNL1        0.0000
     67  H          8.4520    9.3400   13.3910 H       1  UNL1        0.0000
     68  C         10.9530    3.7470   16.6010 C.3     1  UNL1        0.0000
     69  H         10.5030    2.8540   16.9800 H       1  UNL1        0.0000
     70  H         11.8990    3.5120   16.1600 H       1  UNL1        0.0000
     71  H         10.3140    4.1830   15.8620 H       1  UNL1        0.0000
@<TRIPOS>BOND
     1     1    19   ar
     2     1     2   ar
     3     1    30    1
     4     2     3   ar
     5     3    17   ar
     6     3     4   ar
     7     4     5   ar
     8     4    41    1
     9     5     6   ar
    10     5    16    2
    11     6     7   ar
    12     7     8    1
    13     7    17   ar
    14     8     9    1
    15     8    15    1
    16     9    68    1
    17     9    10    1
    18     9    21    1
    19    10    22    1
    20    10    11    1
    21    10    23    1
    22    11    12   am
    23    11    14    1
    24    12    13    2
    25    12    63    1
    26    14    24    1
    27    14    15    1
    28    14    25    1
    29    15    27    1
    30    15    26    1
    31    17    18   ar
    32    18    28    1
    33    18    19   ar
    34    19    20    1
    35    29    39    1
    36    29    30   ar
    37    29    35   ar
    38    30    31   ar
    39    31    32    1
    40    31    33   ar
    41    33    34   ar
    42    33    36    1
    43    34    35   ar
    44    34    37    1
    45    35    38    1
    46    39    40    1
    47    41    42   ar
    48    41    46   ar
    49    42    53    1
    50    42    43   ar
    51    43    44   ar
    52    44    45   ar
    53    44    47    1
    54    45    46   ar
    55    45    48    1
    56    46    49    1
    57    49    51    1
    58    49    50    1
    59    49    52    1
    60    53    59    1
    61    53    54    1
    62    53    55    1
    63    55    56    1
    64    55    58    1
    65    55    57    1
    66    59    62    1
    67    59    60    1
    68    59    61    1
    69    63    64    2
    70    63    65    1
    71    64    66    1
    72    64    67    1
    73    68    71    1
    74    68    70    1
    75    68    69    1
