@<TRIPOS>MOLECULE
UNL
 59 63 0 0 0
SMALL
GASTEIGER

@<TRIPOS>ATOM
      1  N         10.4480    3.7180   24.8240 N.ar    1  UNL1       -0.2449
      2  C          9.8510    4.1880   23.6910 C.ar    1  UNL1        0.1293
      3  C          9.4580    3.0730   22.9690 C.ar    1  UNL1        0.0582
      4  C          8.7580    3.3270   21.7810 C.3     1  UNL1        0.1306
      5  N          8.2000    2.3580   20.9560 N.3     1  UNL1       -0.3056
      6  N          8.5640    4.6070   21.3980 N.2     1  UNL1       -0.2529
      7  C          9.0300    5.5940   22.1830 C.2     1  UNL1        0.0832
      8  N          9.6720    5.4760   23.3560 N.pl3   1  UNL1       -0.2906
      9  C          9.9300    1.9600   23.7360 C.ar    1  UNL1        0.1011
     10  N         10.5070    2.3730   24.8820 N.ar    1  UNL1       -0.1688
     11  H          8.3040    1.4050   21.1770 H       1  UNL1        0.1205
     12  H          7.7010    2.6260   20.1500 H       1  UNL1        0.1205
     13  H          8.8760    6.5560   21.8430 H       1  UNL1        0.0997
     14  O         14.7210    6.2000   25.7020 O.2     1  UNL1       -0.2706
     15  C         13.9060    6.6630   26.4960 C.2     1  UNL1        0.2389
     16  N         12.5490    6.3830   26.4540 N.am    1  UNL1       -0.2960
     17  C         11.5110    7.1110   27.1850 C.3     1  UNL1        0.0151
     18  C         10.5000    6.1380   27.7810 C.3     1  UNL1       -0.0352
     19  C          9.9040    5.2280   26.7070 C.3     1  UNL1       -0.0275
     20  C         12.0480    5.5170   25.3780 C.3     1  UNL1        0.0374
     21  C         11.0070    4.5210   25.9030 C.3     1  UNL1        0.0704
     22  H         11.0070    7.7760   26.5140 H       1  UNL1        0.0465
     23  H         11.9680    7.6670   27.9770 H       1  UNL1        0.0465
     24  H          9.7110    6.6950   28.2440 H       1  UNL1        0.0281
     25  H         11.0040    5.5270   28.5010 H       1  UNL1        0.0281
     26  H          9.3100    5.8180   26.0410 H       1  UNL1        0.0287
     27  H          9.3060    4.4840   27.1890 H       1  UNL1        0.0287
     28  H         12.8690    4.9740   24.9570 H       1  UNL1        0.0485
     29  H         11.5820    6.1350   24.6380 H       1  UNL1        0.0485
     30  H         11.5110    3.8540   26.5710 H       1  UNL1        0.0561
     31  C         14.3660    7.5580   27.5880 C.2     1  UNL1       -0.0067
     32  C         15.1980    8.5690   27.3120 C.2     1  UNL1       -0.0938
     33  H         14.0450    7.4010   28.5560 H       1  UNL1        0.0663
     34  H         15.5170    8.7250   26.3430 H       1  UNL1        0.0536
     35  H         15.5200    9.1940   28.0680 H       1  UNL1        0.0536
     36  C          9.8530    0.5250   23.4380 C.ar    1  UNL1        0.0028
     37  C         10.9930   -0.2070   23.0800 C.ar    1  UNL1       -0.0490
     38  C         10.9000   -1.5670   22.7640 C.ar    1  UNL1       -0.0187
     39  C          8.6290   -0.1530   23.5420 C.ar    1  UNL1       -0.0490
     40  C          8.5350   -1.5140   23.2300 C.ar    1  UNL1       -0.0187
     41  C          9.6620   -2.2120   22.8000 C.ar    1  UNL1        0.1285
     42  H         11.9120    0.2620   23.0490 H       1  UNL1        0.0625
     43  H         11.7480   -2.0950   22.5040 H       1  UNL1        0.0654
     44  H          7.7890    0.3580   23.8540 H       1  UNL1        0.0625
     45  H          7.6290   -2.0010   23.3180 H       1  UNL1        0.0654
     46  O          9.4860   -3.5430   22.5000 O.3     1  UNL1       -0.4560
     47  C         10.3020   -4.1220   21.5540 C.ar    1  UNL1        0.1284
     48  C         11.2460   -5.0370   22.0240 C.ar    1  UNL1       -0.0193
     49  C         12.1060   -5.6770   21.1300 C.ar    1  UNL1       -0.0583
     50  C         12.0160   -5.4090   19.7640 C.ar    1  UNL1       -0.0615
     51  C         11.0520   -4.5210   19.2880 C.ar    1  UNL1       -0.0583
     52  C         10.1820   -3.8910   20.1810 C.ar    1  UNL1       -0.0193
     53  H         11.3070   -5.2410   23.0340 H       1  UNL1        0.0654
     54  H         12.8080   -6.3470   21.4790 H       1  UNL1        0.0619
     55  H         12.6640   -5.8680   19.1050 H       1  UNL1        0.0618
     56  H         10.9810   -4.3300   18.2770 H       1  UNL1        0.0619
     57  H          9.4500   -3.2540   19.8260 H       1  UNL1        0.0654
     58 H           9.3130    2.4873   22.1439 H       1  UNL1        0.0764
     59 H           9.9736    6.2378   23.9019 H       1  UNL1        0.1544
@<TRIPOS>BOND
     1     1     2   ar
     2     1    10   ar
     3     1    21    1
     4     2     3   ar
     5     2     8    1
     6     3     4    1
     7     3     9   ar
     8     4     5    1
     9     4     6    1
    10     4    58    1
    11     5    12    1
    12     5    11    1
    13     6     7    2
    14     7    13    1
    15     7     8    1
    16     8    59    1
    17     9    36    1
    18     9    10   ar
    19    14    15    2
    20    15    16   am
    21    15    31    1
    22    16    20    1
    23    16    17    1
    24    17    22    1
    25    17    18    1
    26    17    23    1
    27    18    19    1
    28    18    24    1
    29    18    25    1
    30    19    21    1
    31    19    26    1
    32    19    27    1
    33    20    29    1
    34    20    28    1
    35    20    21    1
    36    21    30    1
    37    31    32    2
    38    31    33    1
    39    32    34    1
    40    32    35    1
    41    36    37   ar
    42    36    39   ar
    43    37    38   ar
    44    37    42    1
    45    38    43    1
    46    38    41   ar
    47    39    40   ar
    48    39    44    1
    49    40    41   ar
    50    40    45    1
    51    41    46    1
    52    46    47    1
    53    47    52   ar
    54    47    48   ar
    55    48    49   ar
    56    48    53    1
    57    49    50   ar
    58    49    54    1
    59    50    55    1
    60    50    51   ar
    61    51    56    1
    62    51    52   ar
    63    52    57    1
