@<TRIPOS>MOLECULE
UNL
 71 74 0 0 0
SMALL
GASTEIGER

@<TRIPOS>ATOM
      1  C         11.2040    2.4270   25.1440 C.ar    1  UNL1        0.0000
      2  C         10.8480    2.6110   26.4800 C.ar    1  UNL1        0.0000
      3  C         10.5150    3.9020   26.9420 C.ar    1  UNL1        0.0000
      4  C         10.5660    5.0730   26.1420 C.ar    1  UNL1        0.0000
      5  C         11.1660    4.8860   24.8820 C.ar    1  UNL1        0.0000
      6  C         11.4000    3.5870   24.3820 C.ar    1  UNL1        0.0000
      7  H         10.2160    4.0010   27.9250 H       1  UNL1        0.0000
      8  H         11.7310    3.4870   23.4090 H       1  UNL1        0.0000
      9  C          9.7010   -1.5020   22.7990 C.ar    1  UNL1        0.0000
     10  N         10.6900   -0.7550   23.3520 N.ar    1  UNL1        0.0000
     11  C         10.3270    0.3860   23.9590 C.ar    1  UNL1        0.0000
     12  N          9.0470    0.7850   24.0700 N.ar    1  UNL1        0.0000
     13  C          8.0950   -0.0140   23.5780 C.ar    1  UNL1        0.0000
     14  C          8.3680   -1.1850   22.9330 C.ar    1  UNL1        0.0000
     15  N         11.3370    1.1630   24.5380 N.pl3   1  UNL1        0.0000
     16  H          7.1080    0.2680   23.6900 H       1  UNL1        0.0000
     17  H          7.6210   -1.7950   22.5680 H       1  UNL1        0.0000
     18  H         12.2450    0.7830   24.5190 H       1  UNL1        0.0000
     19  N         10.1170   -4.7950   21.3150 N.ar    1  UNL1        0.0000
     20  C          9.5470   -3.9290   22.2090 C.ar    1  UNL1        0.0000
     21  C         10.1030   -2.6760   22.0220 C.ar    1  UNL1        0.0000
     22  C         11.0870   -2.8140   20.9740 C.ar    1  UNL1        0.0000
     23  C         12.0110   -1.9410   20.3540 C.ar    1  UNL1        0.0000
     24  C         12.8340   -2.4000   19.3160 C.ar    1  UNL1        0.0000
     25  C         12.7680   -3.7250   18.9070 C.ar    1  UNL1        0.0000
     26  C         11.8870   -4.6200   19.5160 C.ar    1  UNL1        0.0000
     27  C         11.0570   -4.1450   20.5460 C.ar    1  UNL1        0.0000
     28  H          8.8240   -4.1690   22.9050 H       1  UNL1        0.0000
     29  H         12.0800   -0.9610   20.6680 H       1  UNL1        0.0000
     30  H         13.4900   -1.7510   18.8550 H       1  UNL1        0.0000
     31  H         13.3780   -4.0530   18.1420 H       1  UNL1        0.0000
     32  H         11.8470   -5.6080   19.2170 H       1  UNL1        0.0000
     33  C          9.7810   -6.1970   21.1960 C.3     1  UNL1        0.0000
     34  H          8.7660   -6.3470   21.4990 H       1  UNL1        0.0000
     35  H         10.4300   -6.7730   21.8230 H       1  UNL1        0.0000
     36  H          9.8990   -6.5070   20.1800 H       1  UNL1        0.0000
     37  N         11.6080    5.9170   24.0330 N.am    1  UNL1        0.0000
     38  C         12.8940    6.4090   24.0090 C.2     1  UNL1        0.0000
     39  O         13.2390    7.2190   23.1520 O.2     1  UNL1        0.0000
     40  H         10.9540    6.3150   23.4140 H       1  UNL1        0.0000
     41  C         13.8380    5.9420   25.0600 C.2     1  UNL1        0.0000
     42  C         14.0420    6.6680   26.1640 C.2     1  UNL1        0.0000
     43  H         14.3400    5.0480   24.9350 H       1  UNL1        0.0000
     44  H         13.5430    7.5610   26.2950 H       1  UNL1        0.0000
     45  H         14.7000    6.3350   26.8870 H       1  UNL1        0.0000
     46  N         10.0000    6.2540   26.6440 N.pl3   1  UNL1        0.0000
     47  C          8.6390    6.7470   26.4080 C.3     1  UNL1        0.0000
     48  H          8.0820    6.0120   25.8670 H       1  UNL1        0.0000
     49  H          8.6830    7.6530   25.8410 H       1  UNL1        0.0000
     50  H          8.1610    6.9370   27.3470 H       1  UNL1        0.0000
     51  C         10.5160    6.7120   27.9660 C.3     1  UNL1        0.0000
     52  H         11.3070    6.0630   28.2820 H       1  UNL1        0.0000
     53  H          9.7190    6.6880   28.6790 H       1  UNL1        0.0000
     54  C         11.0530    8.1550   27.8570 C.3     1  UNL1        0.0000
     55  H         10.5920    8.6150   27.0070 H       1  UNL1        0.0000
     56  H         12.1160    8.0700   27.7740 H       1  UNL1        0.0000
     57  N         10.8040    9.0150   29.0330 N.4     1  UNL1        0.0000
     58  H         11.6680    9.0780   29.5710 H       1  UNL1        0.0000
     59  C         10.4290   10.3740   28.6450 C.3     1  UNL1        0.0000
     60  H         11.2790   10.8730   28.2280 H       1  UNL1        0.0000
     61  H         10.0880   10.9100   29.5060 H       1  UNL1        0.0000
     62  H          9.6460   10.3340   27.9170 H       1  UNL1        0.0000
     63  C          9.7420    8.4160   29.8480 C.3     1  UNL1        0.0000
     64  H          8.7870    8.6920   29.4480 H       1  UNL1        0.0000
     65  H          9.8220    8.7700   30.8540 H       1  UNL1        0.0000
     66  H          9.8390    7.3510   29.8360 H       1  UNL1        0.0000
     67  O         10.6590    1.6040   27.3930 O.3     1  UNL1        0.0000
     68  C          9.3110    1.4090   27.8200 C.3     1  UNL1        0.0000
     69  H          8.7490    0.9580   27.0300 H       1  UNL1        0.0000
     70  H          8.8770    2.3530   28.0730 H       1  UNL1        0.0000
     71  H          9.2980    0.7680   28.6770 H       1  UNL1        0.0000
@<TRIPOS>BOND
     1     1     6   ar
     2     1    15    1
     3     1     2   ar
     4     2     3   ar
     5     2    67    1
     6     3     4   ar
     7     3     7    1
     8     4     5   ar
     9     4    46    1
    10     5    37    1
    11     5     6   ar
    12     6     8    1
    13     9    21    1
    14     9    14   ar
    15     9    10   ar
    16    10    11   ar
    17    11    12   ar
    18    11    15    1
    19    12    13   ar
    20    13    14   ar
    21    13    16    1
    22    14    17    1
    23    15    18    1
    24    19    27   ar
    25    19    33    1
    26    19    20   ar
    27    20    21   ar
    28    20    28    1
    29    21    22   ar
    30    22    23   ar
    31    22    27   ar
    32    23    24   ar
    33    23    29    1
    34    24    30    1
    35    24    25   ar
    36    25    31    1
    37    25    26   ar
    38    26    32    1
    39    26    27   ar
    40    33    36    1
    41    33    34    1
    42    33    35    1
    43    37    40    1
    44    37    38   am
    45    38    39    2
    46    38    41    1
    47    41    43    1
    48    41    42    2
    49    42    44    1
    50    42    45    1
    51    46    47    1
    52    46    51    1
    53    47    49    1
    54    47    48    1
    55    47    50    1
    56    51    54    1
    57    51    52    1
    58    51    53    1
    59    54    55    1
    60    54    56    1
    61    54    57    1
    62    57    59    1
    63    57    58    1
    64    57    63    1
    65    59    62    1
    66    59    60    1
    67    59    61    1
    68    63    64    1
    69    63    66    1
    70    63    65    1
    71    67    68    1
    72    68    69    1
    73    68    70    1
    74    68    71    1
