@<TRIPOS>MOLECULE
UNL
 57 59 0 0 0
SMALL
GASTEIGER

@<TRIPOS>ATOM
      1  N          9.6920    4.7000   26.5110 N.am    1  UNL1        0.0000
      2  C          9.5960    4.5060   27.8980 C.2     1  UNL1        0.0000
      3  O          9.6060    5.4340   28.7060 O.2     1  UNL1        0.0000
      4  C          9.8880    3.6100   25.6320 C.ar    1  UNL1        0.0000
      5  C         11.1580    3.0450   25.4910 C.ar    1  UNL1        0.0000
      6  C         11.3690    2.0760   24.5080 C.ar    1  UNL1        0.0000
      7  C         10.3200    1.6620   23.6830 C.ar    1  UNL1        0.0000
      8  C          9.0590    2.2380   23.8310 C.ar    1  UNL1        0.0000
      9  C          8.8430    3.2160   24.8010 C.ar    1  UNL1        0.0000
     10  H         11.9320    3.3410   26.1070 H       1  UNL1        0.0000
     11  H         12.3060    1.6600   24.3900 H       1  UNL1        0.0000
     12  H          8.2830    1.9390   23.2210 H       1  UNL1        0.0000
     13  H          7.9110    3.6480   24.9010 H       1  UNL1        0.0000
     14  O         10.6430    0.7150   22.7470 O.3     1  UNL1        0.0000
     15  C         10.1600   -0.6060   22.9840 C.3     1  UNL1        0.0000
     16  C         11.2730   -1.6550   22.8360 C.3     1  UNL1        0.0000
     17  C         10.7230   -2.7510   21.9250 C.3     1  UNL1        0.0000
     18  C          9.2190   -2.5050   21.8290 C.3     1  UNL1        0.0000
     19  C          9.1220   -0.9840   21.9290 C.3     1  UNL1        0.0000
     20  H          9.7610   -0.6030   23.9770 H       1  UNL1        0.0000
     21  H         11.5250   -2.0630   23.7920 H       1  UNL1        0.0000
     22  H         12.1590   -1.2210   22.4240 H       1  UNL1        0.0000
     23  H         10.9150   -3.7160   22.3450 H       1  UNL1        0.0000
     24  H         11.1850   -2.7270   20.9600 H       1  UNL1        0.0000
     25  H          8.7780   -2.8940   20.9360 H       1  UNL1        0.0000
     26  H          9.3520   -0.5280   20.9890 H       1  UNL1        0.0000
     27  H          8.1360   -0.6550   22.1890 H       1  UNL1        0.0000
     28  N          8.5010   -3.1720   22.9150 N.4     1  UNL1        0.0000
     29  H          8.3640   -2.5180   23.6850 H       1  UNL1        0.0000
     30  H          9.0440   -3.9710   23.2400 H       1  UNL1        0.0000
     31  H          7.5930   -3.4930   22.5760 H       1  UNL1        0.0000
     32  C          9.4900    3.0930   28.3890 C.2     1  UNL1        0.0000
     33  C          8.3450    2.5960   28.8790 C.2     1  UNL1        0.0000
     34  H         10.3230    2.4850   28.3480 H       1  UNL1        0.0000
     35  H          7.5020    3.1910   28.9260 H       1  UNL1        0.0000
     36  H          8.3050    1.6190   29.2080 H       1  UNL1        0.0000
     37  C          9.8590    6.0770   25.9900 C.3     1  UNL1        0.0000
     38  H          9.9020    5.9560   24.9280 H       1  UNL1        0.0000
     39  C         13.5970    6.8570   26.5420 C.ar    1  UNL1        0.0000
     40  C         13.5330    7.9880   27.3710 C.ar    1  UNL1        0.0000
     41  C         12.2690    8.4320   27.8020 C.ar    1  UNL1        0.0000
     42  C         11.0990    7.7940   27.3880 C.ar    1  UNL1        0.0000
     43  C         11.1540    6.6890   26.5290 C.ar    1  UNL1        0.0000
     44  C         12.4140    6.2180   26.1310 C.ar    1  UNL1        0.0000
     45  H         12.2060    9.2450   28.4350 H       1  UNL1        0.0000
     46  H         10.1850    8.1390   27.7170 H       1  UNL1        0.0000
     47  H         12.4730    5.3870   25.5230 H       1  UNL1        0.0000
     48  C         14.7400    8.7900   27.7940 C.3     1  UNL1        0.0000
     49  F         15.6870    8.9640   26.8380 F       1  UNL1        0.0000
     50  F         14.3950   10.0450   28.2000 F       1  UNL1        0.0000
     51  F         15.3850    8.2250   28.8530 F       1  UNL1        0.0000
     52  N         15.8420    5.9160   25.6410 N.1     1  UNL1        0.0000
     53  C         14.8360    6.3160   26.0580 C.1     1  UNL1        0.0000
     54  C          8.6780    7.0420   26.2150 C.3     1  UNL1        0.0000
     55  H          7.7630    6.4860   26.2440 H       1  UNL1        0.0000
     56  H          8.6380    7.7500   25.4130 H       1  UNL1        0.0000
     57  H          8.8090    7.5600   27.1410 H       1  UNL1        0.0000
@<TRIPOS>BOND
     1     1     4    1
     2     1    37    1
     3     1     2   am
     4     2    32    1
     5     2     3    2
     6     4     9   ar
     7     4     5   ar
     8     5     6   ar
     9     5    10    1
    10     6     7   ar
    11     6    11    1
    12     7    14    1
    13     7     8   ar
    14     8    12    1
    15     8     9   ar
    16     9    13    1
    17    14    15    1
    18    15    19    1
    19    15    16    1
    20    15    20    1
    21    16    17    1
    22    16    22    1
    23    16    21    1
    24    17    24    1
    25    17    18    1
    26    17    23    1
    27    18    25    1
    28    18    19    1
    29    18    28    1
    30    19    26    1
    31    19    27    1
    32    28    31    1
    33    28    30    1
    34    28    29    1
    35    32    34    1
    36    32    33    2
    37    33    35    1
    38    33    36    1
    39    37    38    1
    40    37    54    1
    41    37    43    1
    42    39    53    1
    43    39    44   ar
    44    39    40   ar
    45    40    48    1
    46    40    41   ar
    47    41    42   ar
    48    41    45    1
    49    42    43   ar
    50    42    46    1
    51    43    44   ar
    52    44    47    1
    53    48    49    1
    54    48    50    1
    55    48    51    1
    56    52    53    3
    57    54    56    1
    58    54    55    1
    59    54    57    1
