@<TRIPOS>MOLECULE
UNL
 53 55 0 0 0
SMALL
GASTEIGER

@<TRIPOS>ATOM
      1  C          9.7500    4.4050   25.9190 C.ar    1  UNL1        0.0000
      2  C         10.9620    3.7320   25.7680 C.ar    1  UNL1        0.0000
      3  C         11.1300    2.8540   24.7000 C.ar    1  UNL1        0.0000
      4  F         12.3380    2.2890   24.5630 F       1  UNL1        0.0000
      5  C         10.0950    2.6070   23.7960 C.ar    1  UNL1        0.0000
      6  C          8.8580    3.2280   24.0020 C.ar    1  UNL1        0.0000
      7  C          8.6920    4.1430   25.0440 C.ar    1  UNL1        0.0000
      8  H         11.7300    3.8850   26.4410 H       1  UNL1        0.0000
      9  H          8.0630    3.0070   23.3830 H       1  UNL1        0.0000
     10  H          7.7880    4.6270   25.1660 H       1  UNL1        0.0000
     11  N          9.6700    5.4940   26.8220 N.am    1  UNL1        0.0000
     12  C          9.5410    5.2650   28.2000 C.2     1  UNL1        0.0000
     13  O          9.7530    6.1220   29.0580 O.2     1  UNL1        0.0000
     14  C          9.1150    3.8890   28.6110 C.2     1  UNL1        0.0000
     15  C          8.1230    3.6800   29.4910 C.2     1  UNL1        0.0000
     16  H          9.6010    3.0750   28.2050 H       1  UNL1        0.0000
     17  H          7.6250    4.4830   29.9070 H       1  UNL1        0.0000
     18  H          7.8570    2.7170   29.7500 H       1  UNL1        0.0000
     19  C         10.0040    6.8610   26.3520 C.3     1  UNL1        0.0000
     20  H          9.9670    6.7960   25.2850 H       1  UNL1        0.0000
     21 CL         15.5540    8.6760   27.9830 Cl      1  UNL1        0.0000
     22  C         13.9800    8.1180   27.5700 C.ar    1  UNL1        0.0000
     23  C         12.8610    8.8320   27.9850 C.ar    1  UNL1        0.0000
     24  C         11.5860    8.4020   27.6100 C.ar    1  UNL1        0.0000
     25  C         11.4120    7.2560   26.8130 C.ar    1  UNL1        0.0000
     26  C         12.5550    6.5360   26.4260 C.ar    1  UNL1        0.0000
     27  C         13.8310    6.9640   26.8050 C.ar    1  UNL1        0.0000
     28  H         12.9720    9.6770   28.5670 H       1  UNL1        0.0000
     29  H         10.7580    8.9330   27.9220 H       1  UNL1        0.0000
     30  H         12.4510    5.6820   25.8560 H       1  UNL1        0.0000
     31  H         14.6640    6.4250   26.5170 H       1  UNL1        0.0000
     32  C          8.9830    7.9600   26.6970 C.3     1  UNL1        0.0000
     33  H          9.4850    8.9030   26.7660 H       1  UNL1        0.0000
     34  H          8.5170    7.7340   27.6330 H       1  UNL1        0.0000
     35  H          8.2380    8.0080   25.9300 H       1  UNL1        0.0000
     36  O         10.1480    1.8070   22.6860 O.3     1  UNL1        0.0000
     37  C          9.6730    0.4630   22.8010 C.3     1  UNL1        0.0000
     38  C         10.7080   -0.4820   23.4300 C.3     1  UNL1        0.0000
     39  C         10.7890   -1.7170   22.5320 C.3     1  UNL1        0.0000
     40  C          9.6340   -1.6060   21.5380 C.3     1  UNL1        0.0000
     41  C          9.4450   -0.0990   21.3970 C.3     1  UNL1        0.0000
     42  H          8.7920    0.5080   23.4070 H       1  UNL1        0.0000
     43  H         10.3980   -0.7640   24.4150 H       1  UNL1        0.0000
     44  H         11.6620   -0.0050   23.5100 H       1  UNL1        0.0000
     45  H         10.6890   -2.6080   23.1170 H       1  UNL1        0.0000
     46  H         11.7310   -1.7690   22.0260 H       1  UNL1        0.0000
     47  H          9.8330   -2.0900   20.6050 H       1  UNL1        0.0000
     48  H         10.1590    0.3050   20.7090 H       1  UNL1        0.0000
     49  H          8.4770    0.1510   21.0150 H       1  UNL1        0.0000
     50  N          8.4290   -2.2610   22.0410 N.4     1  UNL1        0.0000
     51  H          8.3200   -3.1680   21.5880 H       1  UNL1        0.0000
     52  H          7.6160   -1.6790   21.8390 H       1  UNL1        0.0000
     53  H          8.5100   -2.3920   23.0500 H       1  UNL1        0.0000
@<TRIPOS>BOND
     1     1     7   ar
     2     1     2   ar
     3     1    11    1
     4     2     3   ar
     5     2     8    1
     6     3     5   ar
     7     3     4    1
     8     5    36    1
     9     5     6   ar
    10     6     9    1
    11     6     7   ar
    12     7    10    1
    13    11    19    1
    14    11    12   am
    15    12    14    1
    16    12    13    2
    17    14    16    1
    18    14    15    2
    19    15    18    1
    20    15    17    1
    21    19    20    1
    22    19    32    1
    23    19    25    1
    24    21    22    1
    25    22    27   ar
    26    22    23   ar
    27    23    24   ar
    28    23    28    1
    29    24    25   ar
    30    24    29    1
    31    25    26   ar
    32    26    30    1
    33    26    27   ar
    34    27    31    1
    35    32    35    1
    36    32    33    1
    37    32    34    1
    38    36    37    1
    39    37    41    1
    40    37    42    1
    41    37    38    1
    42    38    39    1
    43    38    44    1
    44    38    43    1
    45    39    40    1
    46    39    46    1
    47    39    45    1
    48    40    47    1
    49    40    41    1
    50    40    50    1
    51    41    48    1
    52    41    49    1
    53    50    51    1
    54    50    52    1
    55    50    53    1
