@<TRIPOS>MOLECULE
UNL
 69 72 0 0 0
SMALL
GASTEIGER

@<TRIPOS>ATOM
      1  C          9.8650    6.1300   24.7360 C.ar    1  UNL1        0.0000
      2  C         10.6210    6.7700   23.7560 C.ar    1  UNL1        0.0000
      3  C         10.6790    6.2570   22.4610 C.ar    1  UNL1        0.0000
      4  F         11.4440    6.9140   21.5820 F       1  UNL1        0.0000
      5  C          9.9540    5.1210   22.0950 C.ar    1  UNL1        0.0000
      6  C          9.1980    4.4760   23.0830 C.ar    1  UNL1        0.0000
      7  C          9.1430    4.9820   24.3950 C.ar    1  UNL1        0.0000
      8  H         11.1420    7.6290   23.9890 H       1  UNL1        0.0000
      9  H          8.6750    3.6170   22.8460 H       1  UNL1        0.0000
     10  H          8.5670    4.5050   25.1070 H       1  UNL1        0.0000
     11  N          9.6990    6.7470   26.0150 N.am    1  UNL1        0.0000
     12  C          8.7420    7.7690   26.0710 C.2     1  UNL1        0.0000
     13  O          8.0920    8.1330   25.0870 O.2     1  UNL1        0.0000
     14  C          8.4930    8.4410   27.3800 C.2     1  UNL1        0.0000
     15  C          8.8300    9.7250   27.5580 C.2     1  UNL1        0.0000
     16  H          8.0600    7.9140   28.1530 H       1  UNL1        0.0000
     17  H          9.2640   10.2560   26.7860 H       1  UNL1        0.0000
     18  H          8.6550   10.1840   28.4650 H       1  UNL1        0.0000
     19  C         10.5270    6.2730   27.1630 C.3     1  UNL1        0.0000
     20  H         10.0110    6.6980   27.9980 H       1  UNL1        0.0000
     21 CL         16.2940    8.1500   27.2250 Cl      1  UNL1        0.0000
     22  C         14.6490    7.6500   27.1450 C.ar    1  UNL1        0.0000
     23  C         14.3270    6.4080   26.6080 C.ar    1  UNL1        0.0000
     24  C         12.9940    5.9870   26.5790 C.ar    1  UNL1        0.0000
     25  C         11.9700    6.7940   27.1080 C.ar    1  UNL1        0.0000
     26  C         12.3130    8.0660   27.5890 C.ar    1  UNL1        0.0000
     27  C         13.6460    8.4880   27.6200 C.ar    1  UNL1        0.0000
     28  H         15.0700    5.7980   26.2330 H       1  UNL1        0.0000
     29  H         12.7570    5.0730   26.1620 H       1  UNL1        0.0000
     30  H         11.5710    8.7010   27.9240 H       1  UNL1        0.0000
     31  H         13.8850    9.4190   27.9960 H       1  UNL1        0.0000
     32  C         10.5490    4.7560   27.4050 C.3     1  UNL1        0.0000
     33  H         11.1420    4.2830   26.6500 H       1  UNL1        0.0000
     34  H          9.5500    4.3740   27.3660 H       1  UNL1        0.0000
     35  H         10.9710    4.5540   28.3680 H       1  UNL1        0.0000
     36  O          9.9020    4.5650   20.8380 O.3     1  UNL1        0.0000
     37  C          8.9200    5.0760   19.9190 C.3     1  UNL1        0.0000
     38  C          8.3050    3.9530   19.0800 C.3     1  UNL1        0.0000
     39  C          7.9830    4.5490   17.7190 C.3     1  UNL1        0.0000
     40  C          8.9640    5.6990   17.5320 C.3     1  UNL1        0.0000
     41  C          9.5930    6.0060   18.8960 C.3     1  UNL1        0.0000
     42  H          8.1800    5.5730   20.5100 H       1  UNL1        0.0000
     43  H          7.4100    3.5940   19.5450 H       1  UNL1        0.0000
     44  H          8.9790    3.1280   18.9890 H       1  UNL1        0.0000
     45  H          6.9760    4.9100   17.6970 H       1  UNL1        0.0000
     46  H          8.0730    3.8220   16.9390 H       1  UNL1        0.0000
     47  H          9.7560    5.4010   16.8770 H       1  UNL1        0.0000
     48  H         10.6460    5.8190   18.8660 H       1  UNL1        0.0000
     49  H          9.4510    7.0320   19.1610 H       1  UNL1        0.0000
     50  N          8.4640    6.8290   16.7460 N.am    1  UNL1        0.0000
     51  C          8.9230    7.6540   15.7920 C.2     1  UNL1        0.0000
     52  N         10.1360    7.4030   15.2370 N.am    1  UNL1        0.0000
     53  O          8.2080    8.5790   15.4140 O.2     1  UNL1        0.0000
     54  H          7.5330    7.0440   16.9840 H       1  UNL1        0.0000
     55  H         10.6970    6.6950   15.6290 H       1  UNL1        0.0000
     56  C         10.6470    8.1480   14.0710 C.3     1  UNL1        0.0000
     57  C         10.2700    7.4830   12.7300 C.3     1  UNL1        0.0000
     58  C         10.9950    6.1430   12.7180 C.3     1  UNL1        0.0000
     59  S         12.5590    6.4780   13.5150 S.O2    1  UNL1        0.0000
     60  C         12.1750    8.1440   14.0390 C.3     1  UNL1        0.0000
     61  O         12.6690    5.6540   14.7050 O.2     1  UNL1        0.0000
     62  O         13.6090    6.5330   12.5210 O.2     1  UNL1        0.0000
     63  H         10.2230    9.1240   14.1760 H       1  UNL1        0.0000
     64  H         10.5910    8.0900   11.9090 H       1  UNL1        0.0000
     65  H          9.2110    7.3620   12.6330 H       1  UNL1        0.0000
     66  H         11.1470    5.8030   11.7150 H       1  UNL1        0.0000
     67  H         10.4410    5.3750   13.2160 H       1  UNL1        0.0000
     68  H         12.5800    8.3460   15.0090 H       1  UNL1        0.0000
     69  H         12.5850    8.8940   13.3970 H       1  UNL1        0.0000
@<TRIPOS>BOND
     1     1     2   ar
     2     1     7   ar
     3     1    11    1
     4     2     3   ar
     5     2     8    1
     6     3     4    1
     7     3     5   ar
     8     5    36    1
     9     5     6   ar
    10     6     9    1
    11     6     7   ar
    12     7    10    1
    13    11    12   am
    14    11    19    1
    15    12    13    2
    16    12    14    1
    17    14    15    2
    18    14    16    1
    19    15    17    1
    20    15    18    1
    21    19    25    1
    22    19    32    1
    23    19    20    1
    24    21    22    1
    25    22    23   ar
    26    22    27   ar
    27    23    28    1
    28    23    24   ar
    29    24    29    1
    30    24    25   ar
    31    25    26   ar
    32    26    27   ar
    33    26    30    1
    34    27    31    1
    35    32    33    1
    36    32    34    1
    37    32    35    1
    38    36    37    1
    39    37    41    1
    40    37    38    1
    41    37    42    1
    42    38    39    1
    43    38    44    1
    44    38    43    1
    45    39    46    1
    46    39    40    1
    47    39    45    1
    48    40    50    1
    49    40    47    1
    50    40    41    1
    51    41    48    1
    52    41    49    1
    53    50    51   am
    54    50    54    1
    55    51    52   am
    56    51    53    2
    57    52    56    1
    58    52    55    1
    59    56    57    1
    60    56    60    1
    61    56    63    1
    62    57    64    1
    63    57    65    1
    64    57    58    1
    65    58    66    1
    66    58    67    1
    67    58    59    1
    68    59    62    2
    69    59    60    1
    70    59    61    2
    71    60    69    1
    72    60    68    1
