@<TRIPOS>MOLECULE
UNL
 69 72 0 0 0
SMALL
GASTEIGER

@<TRIPOS>ATOM
      1  C          9.7860    6.7910   25.0520 C.ar    1  UNL1        0.0000
      2  C         10.8050    7.1060   24.1490 C.ar    1  UNL1        0.0000
      3  C         10.8290    6.5810   22.8400 C.ar    1  UNL1        0.0000
      4 CL         12.2050    7.0510   21.9090 Cl      1  UNL1        0.0000
      5  C          9.8240    5.7080   22.4050 C.ar    1  UNL1        0.0000
      6  C          8.8280    5.3590   23.3450 C.ar    1  UNL1        0.0000
      7  C          8.8060    5.8880   24.6520 C.ar    1  UNL1        0.0000
      8  H         11.5630    7.7400   24.4490 H       1  UNL1        0.0000
      9  H          8.0900    4.6940   23.0640 H       1  UNL1        0.0000
     10  H          8.0640    5.6040   25.3110 H       1  UNL1        0.0000
     11  N          9.8270    7.3380   26.3790 N.am    1  UNL1        0.0000
     12  C          9.1370    8.5400   26.5880 C.2     1  UNL1        0.0000
     13  O          8.5760    9.1590   25.6800 O.2     1  UNL1        0.0000
     14  C          9.0020    9.0560   27.9890 C.2     1  UNL1        0.0000
     15  C          9.6590   10.1570   28.3870 C.2     1  UNL1        0.0000
     16  H          8.3950    8.5570   28.6570 H       1  UNL1        0.0000
     17  H         10.2690   10.6620   27.7250 H       1  UNL1        0.0000
     18  H          9.5550   10.4980   29.3560 H       1  UNL1        0.0000
     19  C         10.6660    6.6360   27.3930 C.3     1  UNL1        0.0000
     20  H         10.3670    7.0550   28.3320 H       1  UNL1        0.0000
     21 CL         16.5970    7.7060   26.7040 Cl      1  UNL1        0.0000
     22  C         14.9100    7.4160   26.8770 C.ar    1  UNL1        0.0000
     23  C         14.3650    6.2150   26.4390 C.ar    1  UNL1        0.0000
     24  C         12.9960    5.9730   26.5970 C.ar    1  UNL1        0.0000
     25  C         12.1560    6.9280   27.1980 C.ar    1  UNL1        0.0000
     26  C         12.7290    8.1390   27.6220 C.ar    1  UNL1        0.0000
     27  C         14.0970    8.3820   27.4600 C.ar    1  UNL1        0.0000
     28  H         14.9680    5.5020   25.9970 H       1  UNL1        0.0000
     29  H         12.5970    5.0800   26.2680 H       1  UNL1        0.0000
     30  H         12.1330    8.8580   28.0590 H       1  UNL1        0.0000
     31  H         14.5020    9.2780   27.7740 H       1  UNL1        0.0000
     32  C         10.3790    5.1340   27.5550 C.3     1  UNL1        0.0000
     33  H         11.2860    4.6220   27.8000 H       1  UNL1        0.0000
     34  H          9.9870    4.7450   26.6380 H       1  UNL1        0.0000
     35  H          9.6650    4.9890   28.3380 H       1  UNL1        0.0000
     36  O          9.6860    5.0580   21.2020 O.3     1  UNL1        0.0000
     37  C          9.4870    5.7580   19.9650 C.3     1  UNL1        0.0000
     38  C          8.3470    5.1560   19.1440 C.3     1  UNL1        0.0000
     39  C          8.7080    5.4380   17.6920 C.3     1  UNL1        0.0000
     40  C         10.2230    5.2940   17.6470 C.3     1  UNL1        0.0000
     41  C         10.7380    5.6160   19.0560 C.3     1  UNL1        0.0000
     42  H          9.2810    6.7730   20.2370 H       1  UNL1        0.0000
     43  H          7.4170    5.6220   19.3960 H       1  UNL1        0.0000
     44  H          8.2300    4.1090   19.3310 H       1  UNL1        0.0000
     45  H          8.4130    6.4280   17.4130 H       1  UNL1        0.0000
     46  H          8.2140    4.7760   17.0110 H       1  UNL1        0.0000
     47  H         10.5440    4.2940   17.4460 H       1  UNL1        0.0000
     48  H         11.3640    4.8240   19.4100 H       1  UNL1        0.0000
     49  H         11.3200    6.5140   19.0570 H       1  UNL1        0.0000
     50  N         10.8500    5.8980   16.4700 N.am    1  UNL1        0.0000
     51  C         11.7090    5.5160   15.4930 C.2     1  UNL1        0.0000
     52  N         11.8690    4.2000   15.2430 N.am    1  UNL1        0.0000
     53  O         12.2770    6.3860   14.8410 O.2     1  UNL1        0.0000
     54  H         10.5740    6.8360   16.3590 H       1  UNL1        0.0000
     55  H         11.4790    3.5450   15.8660 H       1  UNL1        0.0000
     56  C         12.6120    3.7110   14.0580 C.3     1  UNL1        0.0000
     57  C         11.7370    3.5430   12.7970 C.3     1  UNL1        0.0000
     58  C         10.7670    2.4040   13.0960 C.3     1  UNL1        0.0000
     59  S         11.6850    1.2920   14.1580 S.O2    1  UNL1        0.0000
     60  C         13.1530    2.3020   14.2920 C.3     1  UNL1        0.0000
     61  O         11.0500    1.2710   15.4620 O.2     1  UNL1        0.0000
     62  O         12.0100    0.0810   13.4310 O.2     1  UNL1        0.0000
     63  H         13.3690    4.4540   13.9140 H       1  UNL1        0.0000
     64  H         12.3470    3.2980   11.9530 H       1  UNL1        0.0000
     65  H         11.2140    4.4480   12.5630 H       1  UNL1        0.0000
     66  H         10.4770    1.9090   12.1940 H       1  UNL1        0.0000
     67  H          9.8650    2.7510   13.5560 H       1  UNL1        0.0000
     68  H         13.5930    2.2150   15.2640 H       1  UNL1        0.0000
     69  H         13.9240    2.0230   13.6060 H       1  UNL1        0.0000
@<TRIPOS>BOND
     1     1     2   ar
     2     1     7   ar
     3     1    11    1
     4     2     3   ar
     5     2     8    1
     6     3     4    1
     7     3     5   ar
     8     5    36    1
     9     5     6   ar
    10     6     9    1
    11     6     7   ar
    12     7    10    1
    13    11    12   am
    14    11    19    1
    15    12    13    2
    16    12    14    1
    17    14    15    2
    18    14    16    1
    19    15    17    1
    20    15    18    1
    21    19    25    1
    22    19    32    1
    23    19    20    1
    24    21    22    1
    25    22    23   ar
    26    22    27   ar
    27    23    28    1
    28    23    24   ar
    29    24    29    1
    30    24    25   ar
    31    25    26   ar
    32    26    27   ar
    33    26    30    1
    34    27    31    1
    35    32    34    1
    36    32    33    1
    37    32    35    1
    38    36    37    1
    39    37    41    1
    40    37    38    1
    41    37    42    1
    42    38    39    1
    43    38    44    1
    44    38    43    1
    45    39    46    1
    46    39    45    1
    47    39    40    1
    48    40    50    1
    49    40    47    1
    50    40    41    1
    51    41    49    1
    52    41    48    1
    53    50    51   am
    54    50    54    1
    55    51    53    2
    56    51    52   am
    57    52    56    1
    58    52    55    1
    59    56    57    1
    60    56    63    1
    61    56    60    1
    62    57    64    1
    63    57    65    1
    64    57    58    1
    65    58    66    1
    66    58    67    1
    67    58    59    1
    68    59    62    2
    69    59    60    1
    70    59    61    2
    71    60    69    1
    72    60    68    1
