@<TRIPOS>MOLECULE
UNL
 154 160 0 0 0
SMALL
GASTEIGER

@<TRIPOS>ATOM
      1  C         11.6210    7.8680   25.9520 C.3     1  UNL1        0.0573
      2  C         11.7230    6.8690   24.9660 C.3     1  UNL1        0.0093
      3  C         12.7310    7.0010   23.8430 C.3     1  UNL1       -0.0359
      4  C         13.4300    5.7920   23.1860 C.3     1  UNL1       -0.0000
      5  C         12.7520    5.4450   21.8250 C.3     1  UNL1        0.0976
      6  O         11.3650    5.6530   21.5880 O.3     1  UNL1       -0.4630
      7  C         10.8560    5.3070   20.3460 C.2     1  UNL1        0.3259
      8  C          9.4710    6.0010   20.1670 C.3     1  UNL1        0.1220
      9  N          8.3310    5.1290   20.4960 N.3     1  UNL1       -0.2241
     10  N          8.3900    4.6170   21.8190 N.am    1  UNL1       -0.2348
     11  C          8.9650    3.3350   21.9600 C.2     1  UNL1        0.2495
     12  C          7.9830    2.2320   22.3720 C.3     1  UNL1        0.1032
     13  C          8.1400    1.8750   23.8680 C.3     1  UNL1        0.0019
     14  C          9.3420    0.9910   24.2800 C.3     1  UNL1        0.0765
     15  C         10.7030    1.7120   24.5240 C.3     1  UNL1        0.0386
     16  N         10.9020    2.1430   25.9210 N.pl3   1  UNL1       -0.3252
     17  C         10.5580    1.1640   26.9360 C.3     1  UNL1        0.0357
     18  C          9.1030    0.7510   26.6780 C.3     1  UNL1        0.0637
     19  O          8.9580    0.1360   25.3860 O.3     1  UNL1       -0.3734
     20  O         10.1260    3.0500   21.6690 O.2     1  UNL1       -0.2723
     21  C          8.5650    5.6280   22.8730 C.3     1  UNL1        0.0310
     22  C          9.3020    6.9240   22.5130 C.3     1  UNL1       -0.0337
     23  C          9.3590    7.2640   21.0240 C.3     1  UNL1       -0.0242
     24  O         11.3680    4.5920   19.5280 O.2     1  UNL1       -0.2490
     25  C         11.5490    5.7380   25.7980 C.ar    1  UNL1       -0.0194
     26  C         12.5510    5.9400   26.7440 C.ar    1  UNL1        0.0338
     27  C         13.1950    4.8130   27.2870 C.ar    1  UNL1       -0.0386
     28  C         12.6420    3.5270   26.9930 C.ar    1  UNL1       -0.0389
     29  C         11.4740    3.3540   26.2390 C.ar    1  UNL1        0.0302
     30  C         10.9270    4.4950   25.6720 C.ar    1  UNL1       -0.0354
     31  N         12.6640    7.3430   26.7830 N.pl3   1  UNL1       -0.3222
     32  H         13.5140    7.6230   24.2240 H       1  UNL1        0.0278
     33  H         12.1100    7.3470   23.0430 H       1  UNL1        0.0278
     34  H         12.9270    4.4020   21.6620 H       1  UNL1        0.0703
     35  H         13.1960    6.1630   21.1680 H       1  UNL1        0.0703
     36  H          9.4240    6.2460   19.1270 H       1  UNL1        0.0592
     37  H          8.3210    4.3450   19.8440 H       1  UNL1        0.1454
     38  H          6.9670    2.5590   22.3050 H       1  UNL1        0.0596
     39  H          7.2510    1.3610   24.1680 H       1  UNL1        0.0313
     40  H          8.3190    2.8120   24.3510 H       1  UNL1        0.0313
     41  H          9.5650    0.4040   23.4130 H       1  UNL1        0.0612
     42  H         10.7460    2.5770   23.8940 H       1  UNL1        0.0489
     43  H         11.4770    1.0060   24.3000 H       1  UNL1        0.0489
     44  H         10.6510    1.5960   27.9110 H       1  UNL1        0.0486
     45  H         11.2120    0.3180   26.8920 H       1  UNL1        0.0486
     46  H          8.4800    1.6200   26.7220 H       1  UNL1        0.0575
     47  H          8.8150    0.0410   27.4250 H       1  UNL1        0.0575
     48  H          9.1060    5.1650   23.6710 H       1  UNL1        0.0480
     49  H          7.5700    5.9430   23.1080 H       1  UNL1        0.0480
     50  H         10.3070    6.8400   22.8700 H       1  UNL1        0.0281
     51  H          8.7430    7.7140   22.9720 H       1  UNL1        0.0281
     52  H          8.4670    7.7910   20.7540 H       1  UNL1        0.0287
     53  H         10.2240    7.8680   20.8500 H       1  UNL1        0.0287
     54  H         14.0360    4.9110   27.8750 H       1  UNL1        0.0637
     55  H         13.1270    2.6900   27.3510 H       1  UNL1        0.0637
     56  H         10.0430    4.4230   25.1450 H       1  UNL1        0.0639
     57  C          9.8150    8.5700   27.7070 C.ar    1  UNL1        0.0746
     58  C         10.3290    8.4880   26.4060 C.ar    1  UNL1       -0.0027
     59  C          9.5990    9.2100   25.4260 C.ar    1  UNL1       -0.0536
     60  C          8.4350    9.9150   25.7030 C.ar    1  UNL1       -0.0433
     61  C          7.9830    9.8830   26.9900 C.ar    1  UNL1        0.0280
     62  N          8.6350    9.2350   27.9710 N.ar    1  UNL1       -0.2569
     63  H          9.9520    9.2110   24.4560 H       1  UNL1        0.0622
     64  H          7.9340   10.4380   24.9680 H       1  UNL1        0.0633
     65  H          7.1060   10.3770   27.2200 H       1  UNL1        0.0829
     66  C         10.4260    7.9510   28.9600 C.3     1  UNL1        0.0976
     67  H         11.4270    7.7530   28.6380 H       1  UNL1        0.0659
     68  C          9.7140    6.6400   29.3720 C.3     1  UNL1       -0.0331
     69  H          8.6700    6.8320   29.5140 H       1  UNL1        0.0258
     70  H         10.1370    6.2750   30.2840 H       1  UNL1        0.0258
     71  H          9.8400    5.9080   28.6010 H       1  UNL1        0.0258
     72  O         10.5730    8.7990   30.1080 O.3     1  UNL1       -0.3739
     73  C         10.2070   10.1590   29.9280 C.3     1  UNL1        0.0373
     74  H         11.0680   10.7250   29.6420 H       1  UNL1        0.0524
     75  H          9.8130   10.5470   30.8450 H       1  UNL1        0.0524
     76  H          9.4630   10.2290   29.1620 H       1  UNL1        0.0524
     77  C         13.6820    4.4570   23.9040 C.3     1  UNL1       -0.0567
     78  H         14.6740    4.4490   24.3050 H       1  UNL1        0.0236
     79  H         13.5720    3.6520   23.2070 H       1  UNL1        0.0236
     80  H         12.9750    4.3400   24.6980 H       1  UNL1        0.0236
     81  C         14.9080    6.3020   22.9820 C.3     1  UNL1       -0.0567
     82  H         15.1500    7.0080   23.7480 H       1  UNL1        0.0236
     83  H         14.9940    6.7700   22.0240 H       1  UNL1        0.0236
     84  H         15.5810    5.4720   23.0360 H       1  UNL1        0.0236
     85  N          8.1320    1.0990   21.4110 N.am    1  UNL1       -0.3023
     86  C          9.2470    0.2800   21.5030 C.2     1  UNL1        0.2344
     87  O         10.1500    0.5660   22.2970 O.2     1  UNL1       -0.2737
     88  H          7.4480    0.9370   20.7220 H       1  UNL1        0.1495
     89  C          9.2650   -1.0990   20.7320 C.3     1  UNL1        0.1042
     90  H          8.4870   -1.0590   19.9990 H       1  UNL1        0.0599
     91  N         10.3790   -1.3410   19.7780 N.am    1  UNL1       -0.2901
     92  C         10.4130   -1.1140   18.3870 C.2     1  UNL1        0.2533
     93  O         11.4960   -1.2480   17.8070 O.2     1  UNL1       -0.2721
     94  C          9.1520   -0.7300   17.5400 C.3     1  UNL1        0.1896
     95  F          8.0660   -1.4530   17.9730 F       1  UNL1       -0.2319
     96  C          9.3700   -1.1240   16.0580 C.3     1  UNL1        0.0057
     97  C         10.3750   -0.2170   15.3440 C.3     1  UNL1        0.0189
     98  N         10.0940    1.1920   15.5600 N.am    1  UNL1       -0.2907
     99  C         10.6250    2.0900   14.6360 C.2     1  UNL1        0.2910
    100  O         11.4370    1.7830   13.7680 O.2     1  UNL1       -0.2605
    101  C          9.8100    1.6160   16.9260 C.3     1  UNL1        0.0189
    102  C          8.7410    0.7410   17.5480 C.3     1  UNL1        0.0057
    103  H          8.4330   -1.0650   15.5470 H       1  UNL1        0.0316
    104  H          9.7680   -2.1180   16.0450 H       1  UNL1        0.0316
    105  H         10.3350   -0.4190   14.2940 H       1  UNL1        0.0466
    106  H         11.3450   -0.4240   15.7450 H       1  UNL1        0.0466
    107  H          9.4700    2.6310   16.9160 H       1  UNL1        0.0466
    108  H         10.7050    1.5280   17.5050 H       1  UNL1        0.0466
    109  H          8.5790    1.0530   18.5590 H       1  UNL1        0.0316
    110  H          7.8440    0.8430   16.9720 H       1  UNL1        0.0316
    111  C         10.0870    3.4190   14.6140 C.1     1  UNL1       -0.0092
    112  C          9.7210    4.5740   14.5870 C.1     1  UNL1       -0.1051
    113  C          9.2420    5.9590   14.5480 C.3     1  UNL1       -0.0075
    114  C          8.3170    6.1360   15.6920 C.3     1  UNL1       -0.0642
    115  H          8.3700    5.2780   16.3300 H       1  UNL1        0.0225
    116  H          7.3180    6.2490   15.3290 H       1  UNL1        0.0225
    117  H          8.5970    7.0080   16.2450 H       1  UNL1        0.0225
    118  C          8.3050    6.1530   13.3280 C.3     1  UNL1       -0.0642
    119  H          7.4550    6.7330   13.6200 H       1  UNL1        0.0225
    120  H          7.9810    5.1970   12.9720 H       1  UNL1        0.0225
    121  H          8.8340    6.6630   12.5500 H       1  UNL1        0.0225
    122  N         10.2940    6.9740   14.7130 N.4     1  UNL1        0.3867
    123  H         10.0570    7.4770   15.5670 H       1  UNL1       -0.0805
    124  C         10.2970    7.8810   13.5810 C.3     1  UNL1       -0.1016
    125  H          9.4780    7.6470   12.9350 H       1  UNL1        0.0024
    126  H         11.2170    7.7790   13.0450 H       1  UNL1        0.0024
    127  H         10.1980    8.8870   13.9310 H       1  UNL1        0.0024
    128  C         11.6460    6.4330   14.9560 C.3     1  UNL1       -0.1016
    129  H         12.1900    7.1030   15.5890 H       1  UNL1        0.0024
    130  H         12.1600    6.3250   14.0230 H       1  UNL1        0.0024
    131  H         11.5670    5.4780   15.4310 H       1  UNL1        0.0024
    132  C         11.6510   -1.8150   20.3250 C.3     1  UNL1        0.0040
    133  H         12.4570   -1.4460   19.7230 H       1  UNL1        0.0429
    134  H         11.6650   -2.8840   20.3230 H       1  UNL1        0.0429
    135  H         11.7630   -1.4580   21.3280 H       1  UNL1        0.0429
    136  C          8.9130   -2.2590   21.7380 C.3     1  UNL1       -0.0195
    137  H          8.0750   -1.8470   22.2620 H       1  UNL1        0.0318
    138  C          8.4870   -3.5510   21.0380 C.3     1  UNL1       -0.0605
    139  H          7.5030   -3.8230   21.3580 H       1  UNL1        0.0233
    140  H          9.1730   -4.3340   21.2870 H       1  UNL1        0.0233
    141  H          8.4880   -3.4000   19.9780 H       1  UNL1        0.0233
    142  C          9.9500   -2.5630   22.8150 C.3     1  UNL1       -0.0605
    143  H         10.5050   -1.6750   23.0360 H       1  UNL1        0.0233
    144  H         10.6170   -3.3220   22.4630 H       1  UNL1        0.0233
    145  H          9.4560   -2.9040   23.7010 H       1  UNL1        0.0233
    146  C         13.8470    8.1550   27.0520 C.3     1  UNL1        0.0100
    147  H         13.7420    8.5490   28.0410 H       1  UNL1        0.0461
    148  H         13.8590    8.8760   26.2630 H       1  UNL1        0.0461
    149  C         15.2080    7.4860   26.9740 C.3     1  UNL1       -0.0494
    150  H         15.1310    6.4770   27.3230 H       1  UNL1        0.0245
    151  H         15.9050    8.0210   27.5860 H       1  UNL1        0.0245
    152  H         15.5500    7.4870   25.9600 H       1  UNL1        0.0245
    153 H          11.7128    8.8964   25.6712 H       1  UNL1        0.0556
    154 H          11.0259    6.8726   24.1542 H       1  UNL1        0.0371
@<TRIPOS>BOND
     1     1     2    1
     2     1    58    1
     3     1    31    1
     4     1   153    1
     5     2     3    1
     6     2    25    1
     7     2   154    1
     8     3    33    1
     9     3     4    1
    10     3    32    1
    11     4     5    1
    12     4    81    1
    13     4    77    1
    14     5    35    1
    15     5     6    1
    16     5    34    1
    17     6     7    1
    18     7    24    2
    19     7     8    1
    20     8    36    1
    21     8     9    1
    22     8    23    1
    23     9    37    1
    24     9    10    1
    25    10    11   am
    26    10    21    1
    27    11    20    2
    28    11    12    1
    29    12    85    1
    30    12    38    1
    31    12    13    1
    32    13    39    1
    33    13    14    1
    34    13    40    1
    35    14    41    1
    36    14    15    1
    37    14    19    1
    38    15    42    1
    39    15    43    1
    40    15    16    1
    41    16    29    1
    42    16    17    1
    43    17    18    1
    44    17    45    1
    45    17    44    1
    46    18    19    1
    47    18    46    1
    48    18    47    1
    49    21    22    1
    50    21    49    1
    51    21    48    1
    52    22    23    1
    53    22    50    1
    54    22    51    1
    55    23    52    1
    56    23    53    1
    57    25    30   ar
    58    25    26   ar
    59    26    31    1
    60    26    27   ar
    61    27    28   ar
    62    27    54    1
    63    28    29   ar
    64    28    55    1
    65    29    30   ar
    66    30    56    1
    67    31   146    1
    68    57    58   ar
    69    57    62   ar
    70    57    66    1
    71    58    59   ar
    72    59    63    1
    73    59    60   ar
    74    60    64    1
    75    60    61   ar
    76    61    65    1
    77    61    62   ar
    78    66    67    1
    79    66    68    1
    80    66    72    1
    81    68    71    1
    82    68    69    1
    83    68    70    1
    84    72    73    1
    85    73    76    1
    86    73    74    1
    87    73    75    1
    88    77    79    1
    89    77    78    1
    90    77    80    1
    91    81    83    1
    92    81    84    1
    93    81    82    1
    94    85    88    1
    95    85    86   am
    96    86    89    1
    97    86    87    2
    98    89    91    1
    99    89    90    1
   100    89   136    1
   101    91    92   am
   102    91   132    1
   103    92    94    1
   104    92    93    2
   105    94    96    1
   106    94   102    1
   107    94    95    1
   108    96    97    1
   109    96   103    1
   110    96   104    1
   111    97   105    1
   112    97    98    1
   113    97   106    1
   114    98    99   am
   115    98   101    1
   116    99   100    2
   117    99   111    1
   118   101   107    1
   119   101   108    1
   120   101   102    1
   121   102   110    1
   122   102   109    1
   123   111   112    3
   124   112   113    1
   125   113   118    1
   126   113   122    1
   127   113   114    1
   128   114   116    1
   129   114   117    1
   130   114   115    1
   131   118   121    1
   132   118   120    1
   133   118   119    1
   134   122   124    1
   135   122   128    1
   136   122   123    1
   137   124   125    1
   138   124   126    1
   139   124   127    1
   140   128   130    1
   141   128   131    1
   142   128   129    1
   143   132   133    1
   144   132   134    1
   145   132   135    1
   146   136   138    1
   147   136   137    1
   148   136   142    1
   149   138   141    1
   150   138   140    1
   151   138   139    1
   152   142   144    1
   153   142   143    1
   154   142   145    1
   155   146   148    1
   156   146   149    1
   157   146   147    1
   158   149   152    1
   159   149   150    1
   160   149   151    1
