@<TRIPOS>MOLECULE
UNL
 62 63 0 0 0
SMALL
GASTEIGER

@<TRIPOS>ATOM
      1  C         10.3090    5.3410   22.0260 C.ar    1  UNL1        0.0398
      2  C          8.9480    5.0140   21.8750 C.ar    1  UNL1        0.1330
      3  F          8.1740    4.8670   22.9630 F       1  UNL1       -0.2048
      4  C          8.3090    4.8690   20.6340 C.ar    1  UNL1       -0.0179
      5  C          8.9550    5.1850   19.4290 C.ar    1  UNL1        0.0122
      6  C         10.3440    5.6150   19.5700 C.ar    1  UNL1        0.1439
      7  O         11.1660    6.1590   18.5240 O.3     1  UNL1       -0.4904
      8  C         10.3770    5.9690   17.4240 C.3     1  UNL1        0.0869
      9  C         10.3800    5.9500   15.9530 C.3     1  UNL1       -0.0307
     10  C          9.0870    5.0440   15.6750 C.3     1  UNL1       -0.0776
     11  C          9.5200    3.9990   14.5840 C.3     1  UNL1        0.0035
     12  N          9.5250    2.6310   15.0910 N.am    1  UNL1       -0.2999
     13  C         10.6000    1.8960   15.5710 C.2     1  UNL1        0.2387
     14  O         10.4430    0.8110   16.1330 O.2     1  UNL1       -0.2707
     15  C          8.2210    2.2650   15.6100 C.3     1  UNL1        0.0272
     16  C          7.9830    3.0390   16.9130 C.3     1  UNL1        0.0120
     17  N          8.2900    4.4780   16.8630 N.3     1  UNL1       -0.3104
     18  C          7.9870    5.1920   18.1480 C.3     1  UNL1        0.0249
     19  C         11.0150    5.5730   20.8240 C.ar    1  UNL1        0.0933
     20 CL         12.7510    5.7760   20.8310 Cl      1  UNL1       -0.0790
     21  H          7.3370    4.5210   20.6060 H       1  UNL1        0.0651
     22  H          9.6130    6.6960   17.6050 H       1  UNL1        0.0694
     23  H         10.5510    4.9130   17.4560 H       1  UNL1        0.0694
     24  H         11.2700    5.5000   15.5640 H       1  UNL1        0.0262
     25  H         10.3580    6.9160   15.4930 H       1  UNL1        0.0262
     26  H          8.3080    5.6900   15.3300 H       1  UNL1        0.0194
     27  H         10.5060    4.2440   14.2480 H       1  UNL1        0.0429
     28  H          8.8090    4.0480   13.7870 H       1  UNL1        0.0429
     29  H          8.1920    1.2130   15.8040 H       1  UNL1        0.0477
     30  H          7.4610    2.5040   14.8960 H       1  UNL1        0.0477
     31  H          8.5940    2.5980   17.6740 H       1  UNL1        0.0439
     32  H          6.9330    2.9690   17.1070 H       1  UNL1        0.0439
     33  H          7.7590    5.1280   16.2830 H       1  UNL1        0.1223
     34  H          7.8620    6.2220   17.8850 H       1  UNL1        0.0475
     35  H          7.1620    4.6160   18.5120 H       1  UNL1        0.0475
     36  C         10.3970    2.7710   25.8350 C.ar    1  UNL1        0.0817
     37  S         10.9440    3.9220   26.9550 S.2     1  UNL1       -0.0699
     38  C         10.5260    3.2330   24.5390 C.ar    1  UNL1        0.0880
     39  C         10.8550    4.6500   24.4580 C.ar    1  UNL1        0.0190
     40  C         11.2250    5.1030   25.7370 C.ar    1  UNL1        0.0581
     41  C         11.7350    6.3890   25.9630 C.ar    1  UNL1        0.1377
     42  F         12.1130    6.7790   27.1920 F       1  UNL1       -0.2043
     43  C         11.8240    7.2890   24.9200 C.ar    1  UNL1       -0.0247
     44  C         11.3630    6.9160   23.6680 C.ar    1  UNL1       -0.0505
     45  C         10.8840    5.6080   23.3790 C.ar    1  UNL1       -0.0039
     46  H         12.2270    8.2270   25.0710 H       1  UNL1        0.0647
     47  H         11.3690    7.6170   22.9110 H       1  UNL1        0.0625
     48  N          9.9350    1.5770   26.2770 N.pl3   1  UNL1       -0.3516
     49  H         10.1220    1.2880   27.1990 H       1  UNL1        0.1428
     50  H          9.4120    0.9990   25.6760 H       1  UNL1        0.1428
     51  C         10.3070    2.3600   23.4240 C.1     1  UNL1        0.1022
     52  N         10.1140    1.6470   22.5240 N.1     1  UNL1       -0.1908
     53  C         11.9750    2.4480   15.4230 C.2     1  UNL1       -0.0068
     54  C         12.7270    2.0850   14.3740 C.2     1  UNL1       -0.0938
     55  H         12.3460    3.1070   16.1250 H       1  UNL1        0.0663
     56  H         12.3530    1.4250   13.6740 H       1  UNL1        0.0536
     57  H         13.6810    2.4650   14.2680 H       1  UNL1        0.0536
     58 H           9.4884    5.4041   15.7252 H       1  UNL1        0.0262
     59 H           8.7690    4.5468   16.5675 H       1  UNL1        0.0194
     60 H           9.9639    5.6214   15.8815 H       1  UNL1        0.0194
     61 H           9.3078    4.3173   14.9213 H       1  UNL1        0.0194
     62 H           9.2439    4.7035   15.3406 H       1  UNL1        0.0429
@<TRIPOS>BOND
     1     1    19   ar
     2     1     2   ar
     3     1    45    1
     4     2     4   ar
     5     2     3    1
     6     4     5   ar
     7     4    21    1
     8     5    18    1
     9     5     6   ar
    10     6     7    1
    11     6    19   ar
    12     7     8    1
    13     8     9    1
    14     8    23    1
    15     8    22    1
    16     9    25    1
    17     9    24    1
    18     9    58    1
    19    10    26    1
    20    10    59    1
    21    10    60    1
    22    10    61    1
    23    11    28    1
    24    11    27    1
    25    11    12    1
    26    11    62    1
    27    12    13   am
    28    12    15    1
    29    13    53    1
    30    13    14    2
    31    15    30    1
    32    15    29    1
    33    15    16    1
    34    16    17    1
    35    16    32    1
    36    16    31    1
    37    17    33    1
    38    17    18    1
    39    18    34    1
    40    18    35    1
    41    19    20    1
    42    36    38   ar
    43    36    48    1
    44    36    37   ar
    45    37    40   ar
    46    38    51    1
    47    38    39   ar
    48    39    45   ar
    49    39    40   ar
    50    40    41   ar
    51    41    43   ar
    52    41    42    1
    53    43    44   ar
    54    43    46    1
    55    44    47    1
    56    44    45   ar
    57    48    50    1
    58    48    49    1
    59    51    52    3
    60    53    54    2
    61    53    55    1
    62    54    56    1
    63    54    57    1
