@<TRIPOS>MOLECULE
UNL
 77 81 0 0 0
SMALL
GASTEIGER

@<TRIPOS>ATOM
      1  C         10.6680    6.4090   26.0610 C.ar    1  UNL1        0.0566
      2  C          9.4570    6.1820   25.3910 C.ar    1  UNL1        0.1604
      3  F          8.8390    7.2480   24.8550 F       1  UNL1       -0.2025
      4  C          9.2510    5.0050   24.6730 C.ar    1  UNL1        0.1196
      5  N          8.5270    3.9100   25.0370 N.2     1  UNL1       -0.1619
      6  C          8.6690    2.8400   24.2340 C.1     1  UNL1        0.1916
      7  N          9.2070    2.9000   23.0130 N.2     1  UNL1       -0.1783
      8  C          9.8630    4.0170   22.7330 C.3     1  UNL1        0.1442
      9  N          9.9050    4.4860   21.4240 N.3     1  UNL1       -0.2710
     10  C         10.4550    5.8150   21.0680 C.3     1  UNL1        0.0256
     11  C          9.3920    6.7200   20.3920 C.3     1  UNL1        0.0304
     12  N          8.6660    6.0320   19.3220 N.am    1  UNL1       -0.2953
     13  C          8.7520    6.5350   18.0310 C.2     1  UNL1        0.2390
     14  O          9.4220    7.5210   17.7540 O.2     1  UNL1       -0.2706
     15  C          8.0280    4.7900   19.7850 C.3     1  UNL1        0.0279
     16  C          9.0560    3.8200   20.4140 C.3     1  UNL1        0.0173
     17  C         10.2560    4.7890   23.8050 C.ar    1  UNL1        0.0226
     18  C         11.4850    4.7310   24.4860 C.ar    1  UNL1       -0.0340
     19  C         11.6300    5.4290   25.7020 C.ar    1  UNL1        0.0534
     20 CL         12.9610    4.9110   26.6850 Cl      1  UNL1       -0.0828
     21  H         10.7530    6.3240   21.9610 H       1  UNL1        0.0476
     22  H          9.8830    7.5760   19.9780 H       1  UNL1        0.0480
     23  H          8.6800    6.9990   21.1400 H       1  UNL1        0.0480
     24  H          7.5610    4.3080   18.9510 H       1  UNL1        0.0477
     25  H          7.3060    5.0430   20.5330 H       1  UNL1        0.0477
     26  H          8.5290    3.0160   20.8830 H       1  UNL1        0.0443
     27  H          9.6940    3.4650   19.6310 H       1  UNL1        0.0443
     28  H         12.2700    4.1830   24.1010 H       1  UNL1        0.0637
     29  C         12.8670    8.7740   27.7520 C.ar    1  UNL1        0.1171
     30  C         12.1080    9.6830   28.4360 C.ar    1  UNL1       -0.0186
     31  C         10.7180    9.5730   28.3720 C.ar    1  UNL1       -0.0335
     32  C         10.1140    8.5090   27.6290 C.ar    1  UNL1        0.0839
     33  C         10.9700    7.6010   26.9540 C.ar    1  UNL1        0.0892
     34  N         12.3130    7.7880   27.0430 N.ar    1  UNL1       -0.2317
     35  H         12.5510   10.4320   28.9880 H       1  UNL1        0.0654
     36  C          9.9330   10.6310   29.1170 C.3     1  UNL1       -0.0390
     37  H          8.9450   10.6950   28.7090 H       1  UNL1        0.0278
     38  H         10.4230   11.5750   29.0150 H       1  UNL1        0.0278
     39  H          9.8760   10.3680   30.1530 H       1  UNL1        0.0278
     40  C          8.6050    8.4540   27.5550 C.3     1  UNL1        0.4196
     41  F          8.0600    8.9790   26.4180 F       1  UNL1       -0.1658
     42  F          8.1400    7.1710   27.5790 F       1  UNL1       -0.1658
     43  F          7.9830    9.1500   28.5420 F       1  UNL1       -0.1658
     44  N         14.2530    8.8070   27.8030 N.pl3   1  UNL1       -0.3431
     45  H         14.7830    8.3030   27.1440 H       1  UNL1        0.1437
     46  H         14.7090    9.3360   28.4980 H       1  UNL1        0.1437
     47  C          7.9840    5.8370   16.9590 C.2     1  UNL1       -0.0067
     48  C          8.3170    5.9960   15.6720 C.2     1  UNL1       -0.0938
     49  H          7.1900    5.2260   17.2120 H       1  UNL1        0.0663
     50  H          9.1090    6.6070   15.4160 H       1  UNL1        0.0536
     51  H          7.7810    5.5100   14.9360 H       1  UNL1        0.0536
     52  C         11.6700    5.6060   20.1640 C.3     1  UNL1       -0.0479
     53  H         12.5380    6.0220   20.6300 H       1  UNL1        0.0245
     54  H         11.5020    6.0900   19.2240 H       1  UNL1        0.0245
     55  H         11.8180    4.5590   20.0030 H       1  UNL1        0.0245
     56  O          8.5870    1.5590   24.7090 O.2     1  UNL1       -0.4337
     57  C          7.9830    1.3600   25.9740 C.3     1  UNL1        0.0909
     58  H          7.0790    0.8030   25.8460 H       1  UNL1        0.0691
     59  H          7.7750    2.3150   26.4080 H       1  UNL1        0.0691
     60  C          8.9360    0.5760   26.9270 C.3     1  UNL1       -0.0425
     61  N          9.6620    1.2930   27.9920 N.4     1  UNL1        0.3819
     62  C          8.7540    1.4210   29.1310 C.3     1  UNL1       -0.0905
     63  C          7.9870    0.1080   29.1330 C.3     1  UNL1       -0.0694
     64  C          8.1960   -0.4890   27.7460 C.3     1  UNL1       -0.0638
     65  H          9.6280    0.2370   26.1840 H       1  UNL1        0.0127
     66  H         10.4820    0.7370   28.2350 H       1  UNL1       -0.0817
     67  H          8.0900    2.2500   28.9980 H       1  UNL1        0.0059
     68  H          9.2690    1.6010   30.0520 H       1  UNL1        0.0059
     69  H          6.9480    0.2840   29.3120 H       1  UNL1        0.0247
     70  H          8.3310   -0.5490   29.9040 H       1  UNL1        0.0247
     71  H          8.7850   -1.3810   27.8110 H       1  UNL1        0.0250
     72  H          7.2650   -0.7530   27.2910 H       1  UNL1        0.0250
     73  C         10.2630    2.5560   27.6100 C.3     1  UNL1       -0.1027
     74  H         11.0910    2.3740   26.9580 H       1  UNL1        0.0024
     75  H         10.6040    3.0680   28.4870 H       1  UNL1        0.0024
     76  H          9.5370    3.1580   27.1060 H       1  UNL1        0.0024
     77 H          10.8550    3.7164   22.4675 H       1  UNL1        0.0776
@<TRIPOS>BOND
     1     1     2   ar
     2     1    19   ar
     3     1    33    1
     4     2     4   ar
     5     2     3    1
     6     4    17   ar
     7     4     5    1
     8     5     6    2
     9     6     7    2
    10     6    56    1
    11     7     8    1
    12     8     9    1
    13     8    17    1
    14     8    77    1
    15     9    16    1
    16     9    10    1
    17    10    52    1
    18    10    11    1
    19    10    21    1
    20    11    12    1
    21    11    22    1
    22    11    23    1
    23    12    13   am
    24    12    15    1
    25    13    47    1
    26    13    14    2
    27    15    24    1
    28    15    16    1
    29    15    25    1
    30    16    27    1
    31    16    26    1
    32    17    18   ar
    33    18    28    1
    34    18    19   ar
    35    19    20    1
    36    29    34   ar
    37    29    44    1
    38    29    30   ar
    39    30    31   ar
    40    30    35    1
    41    31    32   ar
    42    31    36    1
    43    32    33   ar
    44    32    40    1
    45    33    34   ar
    46    36    37    1
    47    36    38    1
    48    36    39    1
    49    40    41    1
    50    40    42    1
    51    40    43    1
    52    44    45    1
    53    44    46    1
    54    47    48    2
    55    47    49    1
    56    48    51    1
    57    48    50    1
    58    52    54    1
    59    52    55    1
    60    52    53    1
    61    56    57    1
    62    57    58    1
    63    57    59    1
    64    57    60    1
    65    60    65    1
    66    60    64    1
    67    60    61    1
    68    61    73    1
    69    61    66    1
    70    61    62    1
    71    62    67    1
    72    62    63    1
    73    62    68    1
    74    63    64    1
    75    63    69    1
    76    63    70    1
    77    64    72    1
    78    64    71    1
    79    73    74    1
    80    73    76    1
    81    73    75    1
