@<TRIPOS>MOLECULE
UNL
 47 50 0 0 0
SMALL
GASTEIGER

@<TRIPOS>ATOM
      1  C         11.7590    6.0550   25.3100 C.ar    1  UNL1        0.0000
      2  C         11.2920    6.6060   24.1010 C.ar    1  UNL1        0.0000
      3  F         11.6340    7.8790   23.8190 F       1  UNL1        0.0000
      4  C         10.5530    5.8980   23.1430 C.ar    1  UNL1        0.0000
      5  N         10.2100    6.4730   21.9800 N.ar    1  UNL1        0.0000
      6  C          9.5510    5.7140   21.0970 C.ar    1  UNL1        0.0000
      7  N          9.1740    4.4440   21.2760 N.ar    1  UNL1        0.0000
      8  C          9.4950    3.8740   22.4480 C.ar    1  UNL1        0.0000
      9  N          9.1980    2.5290   22.6360 N.pl3   1  UNL1        0.0000
     10  C          8.2270    2.1620   23.6820 C.3     1  UNL1        0.0000
     11  C          8.5650    0.7280   24.1410 C.3     1  UNL1        0.0000
     12  N          8.6470   -0.2290   23.0200 N.am    1  UNL1        0.0000
     13  C          8.4030   -1.5590   23.3310 C.2     1  UNL1        0.0000
     14  O          7.9830   -1.9070   24.4340 O.2     1  UNL1        0.0000
     15  C          9.3960    0.2470   21.8390 C.3     1  UNL1        0.0000
     16  C          9.0440    1.6960   21.4420 C.3     1  UNL1        0.0000
     17  C         10.2330    4.5690   23.4280 C.ar    1  UNL1        0.0000
     18  C         10.7240    3.9810   24.6150 C.ar    1  UNL1        0.0000
     19  C         11.4730    4.7050   25.5380 C.ar    1  UNL1        0.0000
     20 CL         12.0710    3.8230   26.9040 Cl      1  UNL1        0.0000
     21  H          9.3130    6.1500   20.1930 H       1  UNL1        0.0000
     22  H          7.2330    2.1950   23.2870 H       1  UNL1        0.0000
     23  H          8.2810    2.8440   24.5050 H       1  UNL1        0.0000
     24  H          7.8040    0.3980   24.8160 H       1  UNL1        0.0000
     25  H          9.5270    0.7590   24.6080 H       1  UNL1        0.0000
     26  H          9.1740   -0.3960   21.0120 H       1  UNL1        0.0000
     27  H         10.4360    0.2300   22.0910 H       1  UNL1        0.0000
     28  H          9.7060    2.0350   20.6720 H       1  UNL1        0.0000
     29  H          8.0430    1.7520   21.0690 H       1  UNL1        0.0000
     30  H         10.5210    2.9860   24.8030 H       1  UNL1        0.0000
     31  F         14.5790    5.9600   25.4200 F       1  UNL1        0.0000
     32  C         13.9510    6.8260   26.2330 C.ar    1  UNL1        0.0000
     33  C         12.5460    6.8650   26.2630 C.ar    1  UNL1        0.0000
     34  C         11.9600    7.7540   27.1790 C.ar    1  UNL1        0.0000
     35  C         12.7350    8.6140   27.9600 C.ar    1  UNL1        0.0000
     36  C         14.1250    8.5830   27.8690 C.ar    1  UNL1        0.0000
     37  C         14.7360    7.6750   27.0110 C.ar    1  UNL1        0.0000
     38  H         12.2760    9.2750   28.6060 H       1  UNL1        0.0000
     39  H         14.6970    9.2300   28.4340 H       1  UNL1        0.0000
     40  H         15.7650    7.6300   26.9510 H       1  UNL1        0.0000
     41  O         10.6050    7.8470   27.3520 O.3     1  UNL1        0.0000
     42  H         10.2500    7.9950   28.2080 H       1  UNL1        0.0000
     43  C          8.6390   -2.5850   22.2720 C.2     1  UNL1        0.0000
     44  C          9.7290   -3.3600   22.3250 C.2     1  UNL1        0.0000
     45  H          7.9630   -2.6960   21.5020 H       1  UNL1        0.0000
     46  H         10.4050   -3.2480   23.0960 H       1  UNL1        0.0000
     47  H          9.8940   -4.0690   21.5940 H       1  UNL1        0.0000
@<TRIPOS>BOND
     1     1     2   ar
     2     1    19   ar
     3     1    33    1
     4     2     4   ar
     5     2     3    1
     6     4     5   ar
     7     4    17   ar
     8     5     6   ar
     9     6    21    1
    10     6     7   ar
    11     7     8   ar
    12     8     9    1
    13     8    17   ar
    14     9    16    1
    15     9    10    1
    16    10    22    1
    17    10    11    1
    18    10    23    1
    19    11    12    1
    20    11    25    1
    21    11    24    1
    22    12    15    1
    23    12    13   am
    24    13    43    1
    25    13    14    2
    26    15    26    1
    27    15    16    1
    28    15    27    1
    29    16    28    1
    30    16    29    1
    31    17    18   ar
    32    18    30    1
    33    18    19   ar
    34    19    20    1
    35    31    32    1
    36    32    33   ar
    37    32    37   ar
    38    33    34   ar
    39    34    41    1
    40    34    35   ar
    41    35    36   ar
    42    35    38    1
    43    36    37   ar
    44    36    39    1
    45    37    40    1
    46    41    42    1
    47    43    45    1
    48    43    44    2
    49    44    47    1
    50    44    46    1
