@<TRIPOS>MOLECULE
UNL
 130 136 0 0 0
SMALL
GASTEIGER

@<TRIPOS>ATOM
      1  C         10.2240    2.4930   15.4910 C.ar    1  UNL1        0.0000
      2  C          9.8620    1.8590   16.7010 C.ar    1  UNL1        0.0000
      3  C          9.9520    2.9450   17.6290 C.ar    1  UNL1        0.0000
      4  C         11.0310    3.7180   17.2010 C.ar    1  UNL1        0.0000
      5  N         11.2140    3.4040   15.8700 N.ar    1  UNL1        0.0000
      6  C         11.6530    4.6800   18.0090 C.ar    1  UNL1        0.0000
      7  C         11.0040    5.0560   19.1810 C.ar    1  UNL1        0.0000
      8  C          9.7800    4.4880   19.5300 C.ar    1  UNL1        0.0000
      9  C          9.2930    3.3950   18.7830 C.ar    1  UNL1        0.0000
     10  C          9.4640    0.3980   16.8060 C.3     1  UNL1        0.0000
     11  C          8.9120   -0.3940   18.0390 C.3     1  UNL1        0.0000
     12  C         10.0110   -1.1240   18.8930 C.3     1  UNL1        0.0000
     13  O         10.5990   -0.2840   19.8940 O.3     1  UNL1        0.0000
     14  C         11.5480   -0.8080   20.7170 C.2     1  UNL1        0.0000
     15  C         11.0850   -1.6720   21.9300 C.3     1  UNL1        0.0000
     16  N         11.2570   -0.9480   23.2260 N.3     1  UNL1        0.0000
     17  N         10.1850   -0.0180   23.5370 N.am    1  UNL1        0.0000
     18  C          8.8340   -0.5930   23.5000 C.3     1  UNL1        0.0000
     19  C          8.5960   -1.3940   22.2160 C.3     1  UNL1        0.0000
     20  C          9.7340   -2.3770   21.9660 C.3     1  UNL1        0.0000
     21  C         10.4290    1.3020   23.1500 C.2     1  UNL1        0.0000
     22  C         10.1450    2.4290   24.1780 C.3     1  UNL1        0.0000
     23  C          8.7470    3.1040   24.1120 C.3     1  UNL1        0.0000
     24  C          8.5730    4.1610   23.0420 C.ar    1  UNL1        0.0000
     25  C          9.0330    3.8990   21.7580 C.ar    1  UNL1        0.0000
     26  C          9.0980    4.8730   20.7630 C.ar    1  UNL1        0.0000
     27  C          8.5580    6.1310   21.0250 C.ar    1  UNL1        0.0000
     28  C          7.9840    6.3890   22.2750 C.ar    1  UNL1        0.0000
     29  C          8.0070    5.4150   23.2850 C.ar    1  UNL1        0.0000
     30  O         11.0680    1.5420   22.1220 O.2     1  UNL1        0.0000
     31  O         12.7330   -0.4840   20.6020 O.2     1  UNL1        0.0000
     32  H         12.5610    5.0940   17.7450 H       1  UNL1        0.0000
     33  H         11.4340    5.7630   19.7980 H       1  UNL1        0.0000
     34  H          8.4330    2.9150   19.0930 H       1  UNL1        0.0000
     35  H         10.3450   -0.1390   16.5210 H       1  UNL1        0.0000
     36  H          8.5540    0.4520   16.2470 H       1  UNL1        0.0000
     37  H         10.7850   -1.4600   18.2340 H       1  UNL1        0.0000
     38  H          9.5340   -1.9350   19.3990 H       1  UNL1        0.0000
     39  H         11.7580   -2.4890   21.7700 H       1  UNL1        0.0000
     40  H         12.1320   -0.4250   23.1850 H       1  UNL1        0.0000
     41  H          8.1180    0.2010   23.5510 H       1  UNL1        0.0000
     42  H          8.7300   -1.2560   24.3320 H       1  UNL1        0.0000
     43  H          8.5290   -0.7190   21.3880 H       1  UNL1        0.0000
     44  H          7.6860   -1.9480   22.3220 H       1  UNL1        0.0000
     45  H          9.7430   -3.1050   22.7490 H       1  UNL1        0.0000
     46  H          9.5740   -2.8420   21.0160 H       1  UNL1        0.0000
     47  H         10.1030    2.0140   25.1640 H       1  UNL1        0.0000
     48  H          8.5610    3.5630   25.0600 H       1  UNL1        0.0000
     49  H          8.0610    2.3230   23.8610 H       1  UNL1        0.0000
     50  H          9.3410    2.9410   21.5310 H       1  UNL1        0.0000
     51  H          8.5810    6.8660   20.3020 H       1  UNL1        0.0000
     52  H          7.5400    7.3030   22.4560 H       1  UNL1        0.0000
     53  H          7.6030    5.6250   24.2110 H       1  UNL1        0.0000
     54  C          9.5740    1.9730   13.0220 C.ar    1  UNL1        0.0000
     55  C          9.4790    2.6930   14.2180 C.ar    1  UNL1        0.0000
     56  C          8.6850    3.8660   14.1750 C.ar    1  UNL1        0.0000
     57  C          8.1630    4.3620   12.9870 C.ar    1  UNL1        0.0000
     58  C          8.4240    3.6550   11.8420 C.ar    1  UNL1        0.0000
     59  N          9.0840    2.4800   11.8390 N.ar    1  UNL1        0.0000
     60  H          8.4870    4.3680   15.0550 H       1  UNL1        0.0000
     61  H          7.6010    5.2280   12.9680 H       1  UNL1        0.0000
     62  H          8.1000    4.0400   10.9400 H       1  UNL1        0.0000
     63  C         10.0230    0.5310   12.8590 C.3     1  UNL1        0.0000
     64  H         10.3100    0.4720   11.8310 H       1  UNL1        0.0000
     65  C          8.8530   -0.3680   13.2890 C.3     1  UNL1        0.0000
     66  H          8.1380    0.2140   13.8310 H       1  UNL1        0.0000
     67  H          9.2190   -1.1550   13.9140 H       1  UNL1        0.0000
     68  H          8.3880   -0.7880   12.4220 H       1  UNL1        0.0000
     69  O         11.1800    0.0830   13.5590 O.3     1  UNL1        0.0000
     70  C         12.0610   -0.6830   12.7540 C.3     1  UNL1        0.0000
     71  H         12.8960   -0.0790   12.4660 H       1  UNL1        0.0000
     72  H         11.5430   -1.0170   11.8790 H       1  UNL1        0.0000
     73  H         12.4070   -1.5290   13.3090 H       1  UNL1        0.0000
     74  C          8.0480   -1.5550   17.4450 C.3     1  UNL1        0.0000
     75  H          7.4580   -1.9940   18.2210 H       1  UNL1        0.0000
     76  H          8.6910   -2.2990   17.0230 H       1  UNL1        0.0000
     77  H          7.4030   -1.1670   16.6840 H       1  UNL1        0.0000
     78  C          7.9840    0.4170   18.9370 C.3     1  UNL1        0.0000
     79  H          7.0290   -0.0630   18.9890 H       1  UNL1        0.0000
     80  H          7.8670    1.4010   18.5320 H       1  UNL1        0.0000
     81  H          8.4050    0.4830   19.9190 H       1  UNL1        0.0000
     82  N         11.2540    3.3810   23.9780 N.am    1  UNL1        0.0000
     83  C         11.3980    4.5750   24.6200 C.2     1  UNL1        0.0000
     84  O         10.6020    4.9480   25.4970 O.2     1  UNL1        0.0000
     85  H         11.9490    3.1330   23.3260 H       1  UNL1        0.0000
     86  C         12.6600    5.4050   24.2660 C.3     1  UNL1        0.0000
     87  H         12.5390    5.9240   23.3390 H       1  UNL1        0.0000
     88  N         12.8230    6.4920   25.2770 N.am    1  UNL1        0.0000
     89  C         12.9650    6.1650   26.6280 C.2     1  UNL1        0.0000
     90  O         13.0490    4.9750   26.9490 O.2     1  UNL1        0.0000
     91  C         13.2020    7.2520   27.7140 C.3     1  UNL1        0.0000
     92  C         13.9680    8.5420   27.3910 C.3     1  UNL1        0.0000
     93  C         13.2400    9.6960   28.0510 C.3     1  UNL1        0.0000
     94  N         11.8890    9.2090   28.2410 N.am    1  UNL1        0.0000
     95  C         11.8450    7.7580   28.2520 C.3     1  UNL1        0.0000
     96  C         10.8770   10.1010   28.4940 C.2     1  UNL1        0.0000
     97  O         11.0350   11.3230   28.4470 O.2     1  UNL1        0.0000
     98  H         13.8320    6.6970   28.3780 H       1  UNL1        0.0000
     99  H         13.9970    8.6900   26.3300 H       1  UNL1        0.0000
    100  H         14.9720    8.4790   27.7520 H       1  UNL1        0.0000
    101  H         13.2460   10.5580   27.4180 H       1  UNL1        0.0000
    102  H         13.7000    9.9930   28.9700 H       1  UNL1        0.0000
    103  H         11.6920    7.4040   29.2500 H       1  UNL1        0.0000
    104  H         11.0400    7.3990   27.6460 H       1  UNL1        0.0000
    105  C          9.5530    9.5230   28.8400 C.2     1  UNL1        0.0000
    106  C          8.5630    9.4820   27.9390 C.2     1  UNL1        0.0000
    107  H          9.3940    9.1480   29.7880 H       1  UNL1        0.0000
    108  H          8.7140    9.8550   26.9890 H       1  UNL1        0.0000
    109  H          7.6490    9.0760   28.1960 H       1  UNL1        0.0000
    110  C         12.2290    7.7510   24.8590 C.3     1  UNL1        0.0000
    111  H         11.2320    7.5780   24.5130 H       1  UNL1        0.0000
    112  H         12.8120    8.1760   24.0680 H       1  UNL1        0.0000
    113  H         12.2060    8.4280   25.6880 H       1  UNL1        0.0000
    114  C         13.8910    4.5340   23.8750 C.3     1  UNL1        0.0000
    115  H         13.6520    3.5390   24.1890 H       1  UNL1        0.0000
    116  C         15.1980    4.9350   24.5690 C.3     1  UNL1        0.0000
    117  H         15.0700    5.8810   25.0520 H       1  UNL1        0.0000
    118  H         15.9800    5.0080   23.8410 H       1  UNL1        0.0000
    119  H         15.4570    4.1950   25.2970 H       1  UNL1        0.0000
    120  C         14.1260    4.6560   22.3570 C.3     1  UNL1        0.0000
    121  H         13.9000    3.7220   21.8850 H       1  UNL1        0.0000
    122  H         15.1500    4.9100   22.1730 H       1  UNL1        0.0000
    123  H         13.4920    5.4200   21.9570 H       1  UNL1        0.0000
    124  C         12.0080    4.2410   14.9760 C.3     1  UNL1        0.0000
    125  H         12.5560    4.9430   15.5680 H       1  UNL1        0.0000
    126  H         11.3270    4.7220   14.3060 H       1  UNL1        0.0000
    127  C         12.9880    3.4560   14.1320 C.3     1  UNL1        0.0000
    128  H         12.8740    3.7300   13.1050 H       1  UNL1        0.0000
    129  H         12.7970    2.4100   14.2460 H       1  UNL1        0.0000
    130  H         13.9860    3.6730   14.4510 H       1  UNL1        0.0000
@<TRIPOS>BOND
     1     1    55    1
     2     1     5   ar
     3     1     2   ar
     4     2    10    1
     5     2     3   ar
     6     3     4   ar
     7     3     9   ar
     8     4     5   ar
     9     4     6   ar
    10     5   124    1
    11     6    32    1
    12     6     7   ar
    13     7     8   ar
    14     7    33    1
    15     8     9   ar
    16     8    26    1
    17     9    34    1
    18    10    36    1
    19    10    35    1
    20    10    11    1
    21    11    74    1
    22    11    12    1
    23    11    78    1
    24    12    37    1
    25    12    38    1
    26    12    13    1
    27    13    14    1
    28    14    31    2
    29    14    15    1
    30    15    39    1
    31    15    20    1
    32    15    16    1
    33    16    40    1
    34    16    17    1
    35    17    21   am
    36    17    18    1
    37    18    19    1
    38    18    41    1
    39    18    42    1
    40    19    43    1
    41    19    20    1
    42    19    44    1
    43    20    46    1
    44    20    45    1
    45    21    30    2
    46    21    22    1
    47    22    82    1
    48    22    23    1
    49    22    47    1
    50    23    24    1
    51    23    49    1
    52    23    48    1
    53    24    25   ar
    54    24    29   ar
    55    25    26   ar
    56    25    50    1
    57    26    27   ar
    58    27    51    1
    59    27    28   ar
    60    28    52    1
    61    28    29   ar
    62    29    53    1
    63    54    59   ar
    64    54    63    1
    65    54    55   ar
    66    55    56   ar
    67    56    57   ar
    68    56    60    1
    69    57    58   ar
    70    57    61    1
    71    58    62    1
    72    58    59   ar
    73    63    64    1
    74    63    65    1
    75    63    69    1
    76    65    68    1
    77    65    66    1
    78    65    67    1
    79    69    70    1
    80    70    72    1
    81    70    71    1
    82    70    73    1
    83    74    77    1
    84    74    76    1
    85    74    75    1
    86    78    80    1
    87    78    79    1
    88    78    81    1
    89    82    85    1
    90    82    83   am
    91    83    86    1
    92    83    84    2
    93    86    87    1
    94    86   114    1
    95    86    88    1
    96    88   110    1
    97    88    89   am
    98    89    90    2
    99    89    91    1
   100    91    92    1
   101    91    95    1
   102    91    98    1
   103    92    99    1
   104    92   100    1
   105    92    93    1
   106    93   101    1
   107    93    94    1
   108    93   102    1
   109    94    95    1
   110    94    96   am
   111    95   104    1
   112    95   103    1
   113    96    97    2
   114    96   105    1
   115   105   106    2
   116   105   107    1
   117   106   108    1
   118   106   109    1
   119   110   112    1
   120   110   111    1
   121   110   113    1
   122   114   120    1
   123   114   115    1
   124   114   116    1
   125   116   118    1
   126   116   117    1
   127   116   119    1
   128   120   121    1
   129   120   123    1
   130   120   122    1
   131   124   127    1
   132   124   126    1
   133   124   125    1
   134   127   128    1
   135   127   129    1
   136   127   130    1
