@<TRIPOS>MOLECULE
UNL
 130 136 0 0 0
SMALL
GASTEIGER

@<TRIPOS>ATOM
      1  C         10.5540    3.1550   15.4270 C.ar    1  UNL1        0.0000
      2  C         10.0610    2.4590   16.5800 C.ar    1  UNL1        0.0000
      3  C         10.2420    3.4710   17.5880 C.ar    1  UNL1        0.0000
      4  C         11.4570    4.0730   17.2880 C.ar    1  UNL1        0.0000
      5  N         11.6370    3.9070   15.9190 N.ar    1  UNL1        0.0000
      6  C         12.1680    4.8920   18.1790 C.ar    1  UNL1        0.0000
      7  C         11.4730    5.3870   19.2700 C.ar    1  UNL1        0.0000
      8  C         10.1510    5.0180   19.4970 C.ar    1  UNL1        0.0000
      9  C          9.5610    4.0000   18.6980 C.ar    1  UNL1        0.0000
     10  C          9.9930    0.8770   16.7450 C.3     1  UNL1        0.0000
     11  C          9.1020    0.0350   17.7620 C.3     1  UNL1        0.0000
     12  C          9.9090   -0.7750   18.8660 C.3     1  UNL1        0.0000
     13  O         10.6230    0.0030   19.8290 O.3     1  UNL1        0.0000
     14  C         11.1950   -0.4830   20.9590 C.2     1  UNL1        0.0000
     15  C         10.5170   -1.4920   21.9430 C.3     1  UNL1        0.0000
     16  N         10.4170   -0.8420   23.3050 N.3     1  UNL1        0.0000
     17  N          9.3320    0.1150   23.3670 N.am    1  UNL1        0.0000
     18  C          8.0170   -0.4880   23.0770 C.3     1  UNL1        0.0000
     19  C          7.9910   -1.3370   21.8060 C.3     1  UNL1        0.0000
     20  C          9.2090   -2.2460   21.7200 C.3     1  UNL1        0.0000
     21  C          9.5990    1.3500   22.7630 C.2     1  UNL1        0.0000
     22  C         10.1780    2.4530   23.7280 C.3     1  UNL1        0.0000
     23  C          8.9640    3.4330   23.9450 C.3     1  UNL1        0.0000
     24  C          8.8960    4.5840   22.9650 C.ar    1  UNL1        0.0000
     25  C          9.4190    4.4260   21.6860 C.ar    1  UNL1        0.0000
     26  C          9.4900    5.4310   20.7310 C.ar    1  UNL1        0.0000
     27  C          9.0170    6.6880   21.0730 C.ar    1  UNL1        0.0000
     28  C          8.4460    6.8680   22.3390 C.ar    1  UNL1        0.0000
     29  F          7.9830    8.0810   22.6760 F       1  UNL1        0.0000
     30  C          8.3650    5.8260   23.2750 C.ar    1  UNL1        0.0000
     31  O          9.2140    1.5530   21.5950 O.2     1  UNL1        0.0000
     32  O         12.2690    0.0090   21.3330 O.2     1  UNL1        0.0000
     33  H         13.1630    5.1150   18.0260 H       1  UNL1        0.0000
     34  H         11.9410    6.0360   19.9210 H       1  UNL1        0.0000
     35  H          8.6220    3.6450   18.9360 H       1  UNL1        0.0000
     36  H         10.9990    0.5830   16.9590 H       1  UNL1        0.0000
     37  H          9.4730    0.6420   15.8390 H       1  UNL1        0.0000
     38  H         10.6180   -1.3970   18.3600 H       1  UNL1        0.0000
     39  H          9.1690   -1.3100   19.4240 H       1  UNL1        0.0000
     40  H         11.1970   -2.3010   21.7690 H       1  UNL1        0.0000
     41  H         11.2940   -0.3620   23.5060 H       1  UNL1        0.0000
     42  H          7.3010    0.2990   22.9710 H       1  UNL1        0.0000
     43  H          7.7900   -1.1440   23.8930 H       1  UNL1        0.0000
     44  H          7.9800   -0.6890   20.9540 H       1  UNL1        0.0000
     45  H          7.1140   -1.9500   21.8270 H       1  UNL1        0.0000
     46  H          9.1200   -3.0080   22.4670 H       1  UNL1        0.0000
     47  H          9.2370   -2.6610   20.7340 H       1  UNL1        0.0000
     48  H         10.5440    1.9340   24.5900 H       1  UNL1        0.0000
     49  H          9.0350    3.8390   24.9320 H       1  UNL1        0.0000
     50  H          8.0780    2.8540   23.7900 H       1  UNL1        0.0000
     51  H          9.7800    3.4950   21.4290 H       1  UNL1        0.0000
     52  H          9.0850    7.4740   20.4100 H       1  UNL1        0.0000
     53  H          7.9130    5.9850   24.1900 H       1  UNL1        0.0000
     54  C          9.6640    3.0790   12.9920 C.ar    1  UNL1        0.0000
     55  C          9.7860    3.6800   14.2520 C.ar    1  UNL1        0.0000
     56  C          9.2130    4.9680   14.3750 C.ar    1  UNL1        0.0000
     57  C          8.6460    5.6330   13.2910 C.ar    1  UNL1        0.0000
     58  C          8.6430    4.9880   12.0740 C.ar    1  UNL1        0.0000
     59  N          9.1200    3.7420   11.9110 N.ar    1  UNL1        0.0000
     60  H          9.2150    5.4280   15.2980 H       1  UNL1        0.0000
     61  H          8.2420    6.5770   13.3960 H       1  UNL1        0.0000
     62  H          8.2560    5.4810   11.2540 H       1  UNL1        0.0000
     63  C          9.9540    1.6220   12.6730 C.3     1  UNL1        0.0000
     64  H         10.2220    1.6190   11.6370 H       1  UNL1        0.0000
     65  C          8.6940    0.8260   13.0390 C.3     1  UNL1        0.0000
     66  H          8.0900    1.4050   13.7060 H       1  UNL1        0.0000
     67  H          8.9770   -0.0890   13.5180 H       1  UNL1        0.0000
     68  H          8.1390    0.6090   12.1520 H       1  UNL1        0.0000
     69  O         11.0640    0.9970   13.3040 O.3     1  UNL1        0.0000
     70  C         11.2780   -0.3430   12.8930 C.3     1  UNL1        0.0000
     71  H         12.1190   -0.3840   12.2330 H       1  UNL1        0.0000
     72  H         10.4080   -0.7030   12.3830 H       1  UNL1        0.0000
     73  H         11.4670   -0.9530   13.7500 H       1  UNL1        0.0000
     74  C          8.3640   -1.1400   17.0160 C.3     1  UNL1        0.0000
     75  H          8.6120   -2.0700   17.4820 H       1  UNL1        0.0000
     76  H          8.6710   -1.1610   15.9910 H       1  UNL1        0.0000
     77  H          7.3060   -0.9860   17.0670 H       1  UNL1        0.0000
     78  C          7.9860    0.8800   18.3660 C.3     1  UNL1        0.0000
     79  H          8.2410    1.9160   18.2870 H       1  UNL1        0.0000
     80  H          7.8610    0.6220   19.3960 H       1  UNL1        0.0000
     81  H          7.0730    0.6960   17.8380 H       1  UNL1        0.0000
     82  N         11.4630    3.1770   23.4390 N.am    1  UNL1        0.0000
     83  C         11.7590    4.3710   24.0820 C.2     1  UNL1        0.0000
     84  O         10.9780    4.8660   24.9020 O.2     1  UNL1        0.0000
     85  H         12.1000    2.8020   22.7880 H       1  UNL1        0.0000
     86  C         13.1460    5.0680   23.8700 C.3     1  UNL1        0.0000
     87  H         13.2620    5.5890   22.9430 H       1  UNL1        0.0000
     88  N         13.2410    6.1800   24.8740 N.am    1  UNL1        0.0000
     89  C         13.0860    5.9470   26.2390 C.2     1  UNL1        0.0000
     90  O         12.9640    4.7750   26.6220 O.2     1  UNL1        0.0000
     91  C         13.2090    7.0910   27.3100 C.3     1  UNL1        0.0000
     92  C         13.9320    8.4140   27.0220 C.3     1  UNL1        0.0000
     93  C         13.3430    9.4010   28.0350 C.3     1  UNL1        0.0000
     94  N         11.9550    9.0250   28.1060 N.am    1  UNL1        0.0000
     95  C         11.7960    7.6100   27.7210 C.3     1  UNL1        0.0000
     96  C         10.9930    9.9610   28.4100 C.2     1  UNL1        0.0000
     97  O         11.2650   11.1270   28.6810 O.2     1  UNL1        0.0000
     98  H         13.8050    6.5490   28.0140 H       1  UNL1        0.0000
     99  H         13.7400    8.7400   26.0210 H       1  UNL1        0.0000
    100  H         14.9950    8.3250   27.1110 H       1  UNL1        0.0000
    101  H         13.4480   10.4080   27.6920 H       1  UNL1        0.0000
    102  H         13.8330    9.3630   28.9850 H       1  UNL1        0.0000
    103  H         11.4230    7.0430   28.5470 H       1  UNL1        0.0000
    104  H         11.1020    7.5080   26.9130 H       1  UNL1        0.0000
    105  C          9.5730    9.5060   28.3820 C.2     1  UNL1        0.0000
    106  C          8.8950    9.2540   29.5120 C.2     1  UNL1        0.0000
    107  H          9.1020    9.3820   27.4730 H       1  UNL1        0.0000
    108  H          9.3550    9.3740   30.4270 H       1  UNL1        0.0000
    109  H          7.9120    8.9400   29.4640 H       1  UNL1        0.0000
    110  C         13.0290    7.4980   24.2800 C.3     1  UNL1        0.0000
    111  H         12.5800    8.1470   25.0040 H       1  UNL1        0.0000
    112  H         12.3830    7.4080   23.4320 H       1  UNL1        0.0000
    113  H         13.9690    7.9050   23.9720 H       1  UNL1        0.0000
    114  C         14.3230    4.0980   23.5100 C.3     1  UNL1        0.0000
    115  H         13.8900    3.1300   23.6550 H       1  UNL1        0.0000
    116  C         15.5810    4.1900   24.3830 C.3     1  UNL1        0.0000
    117  H         16.2100    3.3460   24.1910 H       1  UNL1        0.0000
    118  H         15.2980    4.1970   25.4150 H       1  UNL1        0.0000
    119  H         16.1100    5.0910   24.1520 H       1  UNL1        0.0000
    120  C         14.8180    4.3890   22.0590 C.3     1  UNL1        0.0000
    121  H         14.8600    3.4740   21.5070 H       1  UNL1        0.0000
    122  H         15.7920    4.8300   22.0970 H       1  UNL1        0.0000
    123  H         14.1390    5.0640   21.5800 H       1  UNL1        0.0000
    124  C         12.5560    4.8470   15.2760 C.3     1  UNL1        0.0000
    125  H         12.4730    4.6560   14.2270 H       1  UNL1        0.0000
    126  H         13.4580    4.6360   15.8130 H       1  UNL1        0.0000
    127  C         12.4940    6.3530   15.4210 C.3     1  UNL1        0.0000
    128  H         13.0520    6.6530   16.2830 H       1  UNL1        0.0000
    129  H         11.4740    6.6600   15.5310 H       1  UNL1        0.0000
    130  H         12.9110    6.8130   14.5490 H       1  UNL1        0.0000
@<TRIPOS>BOND
     1     1    55    1
     2     1     5   ar
     3     1     2   ar
     4     2    10    1
     5     2     3   ar
     6     3     4   ar
     7     3     9   ar
     8     4     5   ar
     9     4     6   ar
    10     5   124    1
    11     6    33    1
    12     6     7   ar
    13     7     8   ar
    14     7    34    1
    15     8     9   ar
    16     8    26    1
    17     9    35    1
    18    10    37    1
    19    10    36    1
    20    10    11    1
    21    11    74    1
    22    11    78    1
    23    11    12    1
    24    12    38    1
    25    12    39    1
    26    12    13    1
    27    13    14    1
    28    14    32    2
    29    14    15    1
    30    15    20    1
    31    15    40    1
    32    15    16    1
    33    16    17    1
    34    16    41    1
    35    17    21   am
    36    17    18    1
    37    18    19    1
    38    18    42    1
    39    18    43    1
    40    19    44    1
    41    19    20    1
    42    19    45    1
    43    20    47    1
    44    20    46    1
    45    21    31    2
    46    21    22    1
    47    22    82    1
    48    22    23    1
    49    22    48    1
    50    23    24    1
    51    23    50    1
    52    23    49    1
    53    24    25   ar
    54    24    30   ar
    55    25    26   ar
    56    25    51    1
    57    26    27   ar
    58    27    52    1
    59    27    28   ar
    60    28    29    1
    61    28    30   ar
    62    30    53    1
    63    54    59   ar
    64    54    63    1
    65    54    55   ar
    66    55    56   ar
    67    56    57   ar
    68    56    60    1
    69    57    58   ar
    70    57    61    1
    71    58    62    1
    72    58    59   ar
    73    63    64    1
    74    63    65    1
    75    63    69    1
    76    65    68    1
    77    65    67    1
    78    65    66    1
    79    69    70    1
    80    70    71    1
    81    70    72    1
    82    70    73    1
    83    74    76    1
    84    74    77    1
    85    74    75    1
    86    78    81    1
    87    78    79    1
    88    78    80    1
    89    82    85    1
    90    82    83   am
    91    83    86    1
    92    83    84    2
    93    86    87    1
    94    86   114    1
    95    86    88    1
    96    88   110    1
    97    88    89   am
    98    89    90    2
    99    89    91    1
   100    91    92    1
   101    91    95    1
   102    91    98    1
   103    92    99    1
   104    92   100    1
   105    92    93    1
   106    93   101    1
   107    93    94    1
   108    93   102    1
   109    94    95    1
   110    94    96   am
   111    95   104    1
   112    95   103    1
   113    96   105    1
   114    96    97    2
   115   105   107    1
   116   105   106    2
   117   106   109    1
   118   106   108    1
   119   110   112    1
   120   110   113    1
   121   110   111    1
   122   114   120    1
   123   114   115    1
   124   114   116    1
   125   116   119    1
   126   116   117    1
   127   116   118    1
   128   120   121    1
   129   120   123    1
   130   120   122    1
   131   124   125    1
   132   124   127    1
   133   124   126    1
   134   127   130    1
   135   127   129    1
   136   127   128    1
