@<TRIPOS>MOLECULE
UNL
 133 139 0 0 0
SMALL
GASTEIGER

@<TRIPOS>ATOM
      1  C         10.9040    5.1870   18.8490 C.ar    1  UNL1        0.0000
      2  C         10.3100    4.5410   20.0130 C.ar    1  UNL1        0.0000
      3  C         10.5750    5.5460   21.0430 C.ar    1  UNL1        0.0000
      4  C         11.8280    6.0880   20.7340 C.ar    1  UNL1        0.0000
      5  N         12.0920    5.7620   19.4190 N.ar    1  UNL1        0.0000
      6  C         12.5630    6.8910   21.6240 C.ar    1  UNL1        0.0000
      7  C         11.9100    7.4260   22.7190 C.ar    1  UNL1        0.0000
      8  C         10.5990    7.0600   23.0090 C.ar    1  UNL1        0.0000
      9  C          9.9680    6.0550   22.2210 C.ar    1  UNL1        0.0000
     10  C          9.9340    2.9310   20.1250 C.3     1  UNL1        0.0000
     11  C          9.0920    2.1020   21.2600 C.3     1  UNL1        0.0000
     12  C          9.9230    1.0390   22.1140 C.3     1  UNL1        0.0000
     13  O         11.0760    1.5930   22.7430 O.3     1  UNL1        0.0000
     14  C         11.6260    1.4040   23.9380 C.2     1  UNL1        0.0000
     15  C         11.1640    0.4800   25.1000 C.3     1  UNL1        0.0000
     16  N         11.3960    1.2250   26.3970 N.3     1  UNL1        0.0000
     17  N         10.3660    2.2040   26.6500 N.am    1  UNL1        0.0000
     18  C          8.9900    1.7130   26.6310 C.3     1  UNL1        0.0000
     19  C          8.6880    0.7600   25.4850 C.3     1  UNL1        0.0000
     20  C          9.8230   -0.2220   25.2540 C.3     1  UNL1        0.0000
     21  C         10.5960    3.4880   26.1180 C.2     1  UNL1        0.0000
     22  C         11.3250    4.4140   27.1610 C.3     1  UNL1        0.0000
     23  C         10.3210    5.5350   27.6130 C.3     1  UNL1        0.0000
     24  C         10.0040    6.6350   26.6380 C.ar    1  UNL1        0.0000
     25  C         10.4880    6.5800   25.3410 C.ar    1  UNL1        0.0000
     26  C         10.0770    7.4270   24.3230 C.ar    1  UNL1        0.0000
     27  C          9.2700    8.5180   24.6540 C.ar    1  UNL1        0.0000
     28  C          8.8290    8.6740   25.9860 C.ar    1  UNL1        0.0000
     29  C          9.1690    7.7120   26.9550 C.ar    1  UNL1        0.0000
     30  O         10.1840    3.7600   24.9910 O.2     1  UNL1        0.0000
     31  O         12.6910    2.0190   24.1610 O.2     1  UNL1        0.0000
     32  H         13.5650    7.0780   21.4640 H       1  UNL1        0.0000
     33  H         12.3970    8.1020   23.3270 H       1  UNL1        0.0000
     34  H          9.0470    5.6890   22.5120 H       1  UNL1        0.0000
     35  H         10.8860    2.4420   20.1030 H       1  UNL1        0.0000
     36  H          9.1790    2.9190   19.3660 H       1  UNL1        0.0000
     37  H         10.2370    0.2510   21.4610 H       1  UNL1        0.0000
     38  H          9.2780    0.6880   22.8930 H       1  UNL1        0.0000
     39  H         11.7490   -0.3700   24.8130 H       1  UNL1        0.0000
     40  H         12.2970    1.7000   26.3480 H       1  UNL1        0.0000
     41  H          8.3340    2.5540   26.5500 H       1  UNL1        0.0000
     42  H          8.8460    1.1630   27.5370 H       1  UNL1        0.0000
     43  H          8.5360    1.3300   24.5920 H       1  UNL1        0.0000
     44  H          7.8110    0.2020   25.7400 H       1  UNL1        0.0000
     45  H          9.8770   -0.8900   26.0880 H       1  UNL1        0.0000
     46  H          9.6210   -0.7510   24.3460 H       1  UNL1        0.0000
     47  H         11.5820    3.7880   27.9910 H       1  UNL1        0.0000
     48  H         10.7300    5.9940   28.4880 H       1  UNL1        0.0000
     49  H          9.3920    5.0220   27.7490 H       1  UNL1        0.0000
     50  H         11.1990    5.8660   25.1190 H       1  UNL1        0.0000
     51  H          8.9980    9.2040   23.9320 H       1  UNL1        0.0000
     52  H          8.7970    7.8020   27.9140 H       1  UNL1        0.0000
     53  C         10.5450    6.1190   16.3540 C.ar    1  UNL1        0.0000
     54  C         10.2550    6.0350   17.7250 C.ar    1  UNL1        0.0000
     55  C          9.3050    7.0060   18.1540 C.ar    1  UNL1        0.0000
     56  C          8.8360    8.0540   17.3550 C.ar    1  UNL1        0.0000
     57  C          9.2570    8.0950   16.0610 C.ar    1  UNL1        0.0000
     58  N         10.0680    7.1580   15.5550 N.ar    1  UNL1        0.0000
     59  H          8.9410    6.9310   19.1160 H       1  UNL1        0.0000
     60  H          8.1940    8.7670   17.7330 H       1  UNL1        0.0000
     61  H          8.9420    8.8690   15.4550 H       1  UNL1        0.0000
     62  C         11.2850    5.1580   15.4470 C.3     1  UNL1        0.0000
     63  H         11.0200    5.4490   14.4520 H       1  UNL1        0.0000
     64  C         10.8160    3.7220   15.7610 C.3     1  UNL1        0.0000
     65  H         11.6670    3.1030   15.9570 H       1  UNL1        0.0000
     66  H         10.2770    3.3310   14.9230 H       1  UNL1        0.0000
     67  H         10.1770    3.7340   16.6200 H       1  UNL1        0.0000
     68  O         12.7040    5.2590   15.3990 O.3     1  UNL1        0.0000
     69  C         13.1840    5.1450   14.0580 C.3     1  UNL1        0.0000
     70  H         12.9220    6.0260   13.5110 H       1  UNL1        0.0000
     71  H         12.7410    4.2900   13.5920 H       1  UNL1        0.0000
     72  H         14.2480    5.0340   14.0680 H       1  UNL1        0.0000
     73  C          7.9850    9.8570   26.3960 C.3     1  UNL1        0.0000
     74  F          8.6650   10.8110   27.0920 F       1  UNL1        0.0000
     75  H          7.1840    9.5000   27.0080 H       1  UNL1        0.0000
     76  H          7.6410   10.3180   25.4940 H       1  UNL1        0.0000
     77  N         12.6810    4.9030   26.8190 N.am    1  UNL1        0.0000
     78  C         13.0390    5.0600   25.4910 C.2     1  UNL1        0.0000
     79  O         12.2360    4.7910   24.5850 O.2     1  UNL1        0.0000
     80  H         13.3250    5.1160   27.5330 H       1  UNL1        0.0000
     81  C         14.4060    5.7110   25.1120 C.3     1  UNL1        0.0000
     82  H         14.3560    6.0650   24.1020 H       1  UNL1        0.0000
     83  N         14.6070    6.8860   26.0030 N.am    1  UNL1        0.0000
     84  C         14.5870    6.7420   27.3830 C.2     1  UNL1        0.0000
     85  O         14.3560    5.6510   27.9030 O.2     1  UNL1        0.0000
     86  C         14.8450    7.9810   28.2460 C.3     1  UNL1        0.0000
     87  C         15.8480    8.9380   27.5920 C.3     1  UNL1        0.0000
     88  C         15.4820   10.2980   28.1710 C.3     1  UNL1        0.0000
     89  N         14.0430   10.2300   28.3540 N.am    1  UNL1        0.0000
     90  C         13.5890    8.8470   28.3920 C.3     1  UNL1        0.0000
     91  C         13.2670   11.3710   28.3710 C.2     1  UNL1        0.0000
     92  O         13.7310   12.4880   28.2580 O.2     1  UNL1        0.0000
     93  H         15.1930    7.5850   29.1780 H       1  UNL1        0.0000
     94  H         15.7400    8.9340   26.5290 H       1  UNL1        0.0000
     95  H         16.8650    8.6660   27.7850 H       1  UNL1        0.0000
     96  H         15.7400   11.0820   27.4900 H       1  UNL1        0.0000
     97  H         16.0010   10.5110   29.0810 H       1  UNL1        0.0000
     98  H         13.1030    8.6410   29.3230 H       1  UNL1        0.0000
     99  H         12.8830    8.6460   27.6130 H       1  UNL1        0.0000
    100  C         11.8020   11.1580   28.5490 C.2     1  UNL1        0.0000
    101  C         11.3210   10.1880   29.3380 C.2     1  UNL1        0.0000
    102  H         11.1400   11.7740   28.0500 H       1  UNL1        0.0000
    103  H         11.9690    9.5640   29.8430 H       1  UNL1        0.0000
    104  H         10.3010   10.0640   29.4410 H       1  UNL1        0.0000
    105  C         14.7040    8.1800   25.3330 C.3     1  UNL1        0.0000
    106  H         13.7850    8.3880   24.8250 H       1  UNL1        0.0000
    107  H         15.5050    8.1560   24.6250 H       1  UNL1        0.0000
    108  H         14.8900    8.9430   26.0590 H       1  UNL1        0.0000
    109  C         15.6070    4.7560   24.8780 C.3     1  UNL1        0.0000
    110  H         15.4880    3.9640   25.5870 H       1  UNL1        0.0000
    111  C         15.5980    4.2350   23.4280 C.3     1  UNL1        0.0000
    112  H         16.2850    4.8070   22.8400 H       1  UNL1        0.0000
    113  H         14.6130    4.3300   23.0210 H       1  UNL1        0.0000
    114  H         15.8910    3.2060   23.4170 H       1  UNL1        0.0000
    115  C         16.9710    5.4280   25.1110 C.3     1  UNL1        0.0000
    116  H         17.1540    6.1440   24.3360 H       1  UNL1        0.0000
    117  H         17.7420    4.6870   25.1000 H       1  UNL1        0.0000
    118  H         16.9660    5.9240   26.0590 H       1  UNL1        0.0000
    119  C          8.3420    3.0450   22.1890 C.3     1  UNL1        0.0000
    120  H          9.0220    3.7660   22.5900 H       1  UNL1        0.0000
    121  H          7.9040    2.4840   22.9880 H       1  UNL1        0.0000
    122  H          7.5720    3.5470   21.6410 H       1  UNL1        0.0000
    123  C          7.9830    1.1590   20.6480 C.3     1  UNL1        0.0000
    124  H          8.3770    0.6560   19.7880 H       1  UNL1        0.0000
    125  H          7.1350    1.7450   20.3600 H       1  UNL1        0.0000
    126  H          7.6860    0.4360   21.3780 H       1  UNL1        0.0000
    127  C         13.2290    6.3540   18.6870 C.3     1  UNL1        0.0000
    128  H         13.7470    5.5440   18.2180 H       1  UNL1        0.0000
    129  H         13.7490    6.9000   19.4460 H       1  UNL1        0.0000
    130  C         12.9810    7.4220   17.5890 C.3     1  UNL1        0.0000
    131  H         12.5680    8.3030   18.0360 H       1  UNL1        0.0000
    132  H         12.2950    7.0350   16.8640 H       1  UNL1        0.0000
    133  H         13.9060    7.6640   17.1100 H       1  UNL1        0.0000
@<TRIPOS>BOND
     1     1    54    1
     2     1     5   ar
     3     1     2   ar
     4     2    10    1
     5     2     3   ar
     6     3     4   ar
     7     3     9   ar
     8     4     5   ar
     9     4     6   ar
    10     5   127    1
    11     6    32    1
    12     6     7   ar
    13     7     8   ar
    14     7    33    1
    15     8     9   ar
    16     8    26    1
    17     9    34    1
    18    10    36    1
    19    10    35    1
    20    10    11    1
    21    11   123    1
    22    11    12    1
    23    11   119    1
    24    12    37    1
    25    12    13    1
    26    12    38    1
    27    13    14    1
    28    14    31    2
    29    14    15    1
    30    15    39    1
    31    15    20    1
    32    15    16    1
    33    16    40    1
    34    16    17    1
    35    17    21   am
    36    17    18    1
    37    18    19    1
    38    18    41    1
    39    18    42    1
    40    19    43    1
    41    19    20    1
    42    19    44    1
    43    20    46    1
    44    20    45    1
    45    21    30    2
    46    21    22    1
    47    22    77    1
    48    22    23    1
    49    22    47    1
    50    23    24    1
    51    23    49    1
    52    23    48    1
    53    24    25   ar
    54    24    29   ar
    55    25    26   ar
    56    25    50    1
    57    26    27   ar
    58    27    51    1
    59    27    28   ar
    60    28    73    1
    61    28    29   ar
    62    29    52    1
    63    53    62    1
    64    53    58   ar
    65    53    54   ar
    66    54    55   ar
    67    55    56   ar
    68    55    59    1
    69    56    57   ar
    70    56    60    1
    71    57    61    1
    72    57    58   ar
    73    62    63    1
    74    62    68    1
    75    62    64    1
    76    64    66    1
    77    64    65    1
    78    64    67    1
    79    68    69    1
    80    69    70    1
    81    69    71    1
    82    69    72    1
    83    73    76    1
    84    73    75    1
    85    73    74    1
    86    77    78   am
    87    77    80    1
    88    78    79    2
    89    78    81    1
    90    81    82    1
    91    81   109    1
    92    81    83    1
    93    83   105    1
    94    83    84   am
    95    84    85    2
    96    84    86    1
    97    86    87    1
    98    86    90    1
    99    86    93    1
   100    87    94    1
   101    87    95    1
   102    87    88    1
   103    88    96    1
   104    88    89    1
   105    88    97    1
   106    89    91   am
   107    89    90    1
   108    90    99    1
   109    90    98    1
   110    91    92    2
   111    91   100    1
   112   100   102    1
   113   100   101    2
   114   101   104    1
   115   101   103    1
   116   105   107    1
   117   105   106    1
   118   105   108    1
   119   109   111    1
   120   109   115    1
   121   109   110    1
   122   111   112    1
   123   111   113    1
   124   111   114    1
   125   115   116    1
   126   115   117    1
   127   115   118    1
   128   119   122    1
   129   119   120    1
   130   119   121    1
   131   123   124    1
   132   123   125    1
   133   123   126    1
   134   127   130    1
   135   127   128    1
   136   127   129    1
   137   130   132    1
   138   130   133    1
   139   130   131    1
