@<TRIPOS>MOLECULE
UNL
 133 139 0 0 0
SMALL
GASTEIGER

@<TRIPOS>ATOM
      1  C         10.2720    6.9760   18.0910 C.ar    1  UNL1        0.0000
      2  C         11.1510    6.3360   19.0710 C.ar    1  UNL1        0.0000
      3  C         12.5530    6.9320   19.5300 C.3     1  UNL1        0.0000
      4  C         13.7340    6.2720   20.4010 C.3     1  UNL1        0.0000
      5  C         13.9540    6.8830   21.8620 C.3     1  UNL1        0.0000
      6  O         13.1930    6.3330   22.9480 O.3     1  UNL1        0.0000
      7  C         13.2730    7.0580   24.1210 C.2     1  UNL1        0.0000
      8  C         14.0210    6.3610   25.2830 C.3     1  UNL1        0.0000
      9  N         13.2080    5.3910   26.0720 N.3     1  UNL1        0.0000
     10  N         13.1830    4.0520   25.5210 N.am    1  UNL1        0.0000
     11  C         12.3800    3.0930   26.1660 C.2     1  UNL1        0.0000
     12  C         10.8400    3.2780   26.3060 C.3     1  UNL1        0.0000
     13  C         10.1030    1.9530   25.7900 C.3     1  UNL1        0.0000
     14  C          9.8060    1.6390   24.3250 C.ar    1  UNL1        0.0000
     15  C          9.7900    2.6150   23.3450 C.ar    1  UNL1        0.0000
     16  C          9.3890    2.3780   22.0070 C.ar    1  UNL1        0.0000
     17  C          8.9950    1.0900   21.6570 C.ar    1  UNL1        0.0000
     18  C          9.0110    0.0470   22.6140 C.ar    1  UNL1        0.0000
     19  C          9.4240    0.3390   23.9300 C.ar    1  UNL1        0.0000
     20  O         12.8740    2.0150   26.5380 O.2     1  UNL1        0.0000
     21  C         14.4960    3.5270   25.1330 C.3     1  UNL1        0.0000
     22  C         15.2760    4.4640   24.2320 C.3     1  UNL1        0.0000
     23  C         15.3970    5.8230   24.8970 C.3     1  UNL1        0.0000
     24  O         12.8330    8.1910   24.2390 O.2     1  UNL1        0.0000
     25  C         10.2740    5.3670   19.7170 C.ar    1  UNL1        0.0000
     26  C          9.0220    5.9930   19.7340 C.ar    1  UNL1        0.0000
     27  C          7.9830    5.5430   20.5620 C.ar    1  UNL1        0.0000
     28  C          8.1160    4.3350   21.2390 C.ar    1  UNL1        0.0000
     29  C          9.2740    3.5740   21.1380 C.ar    1  UNL1        0.0000
     30  C         10.3590    4.1100   20.3970 C.ar    1  UNL1        0.0000
     31  N          9.0780    7.0470   18.8410 N.ar    1  UNL1        0.0000
     32  H         12.2930    7.8150   20.0760 H       1  UNL1        0.0000
     33  H         13.0400    6.8810   18.5790 H       1  UNL1        0.0000
     34  H         13.7240    7.9260   21.8080 H       1  UNL1        0.0000
     35  H         14.9690    6.6420   22.1010 H       1  UNL1        0.0000
     36  H         14.2060    7.1590   25.9720 H       1  UNL1        0.0000
     37  H         12.2490    5.7360   26.1140 H       1  UNL1        0.0000
     38  H         10.8550    3.5170   27.3490 H       1  UNL1        0.0000
     39  H          9.1540    1.9430   26.2840 H       1  UNL1        0.0000
     40  H         10.8500    1.2180   26.0010 H       1  UNL1        0.0000
     41  H         10.0850    3.5690   23.6040 H       1  UNL1        0.0000
     42  H          8.6880    0.8940   20.6920 H       1  UNL1        0.0000
     43  H          9.4490   -0.4210   24.6260 H       1  UNL1        0.0000
     44  H         14.3530    2.6010   24.6160 H       1  UNL1        0.0000
     45  H         15.0650    3.4020   26.0300 H       1  UNL1        0.0000
     46  H         14.7640    4.5680   23.2980 H       1  UNL1        0.0000
     47  H         16.2530    4.0630   24.0630 H       1  UNL1        0.0000
     48  H         15.9980    5.7320   25.7760 H       1  UNL1        0.0000
     49  H         15.8500    6.5030   24.2070 H       1  UNL1        0.0000
     50  H          7.1250    6.1050   20.6690 H       1  UNL1        0.0000
     51  H          7.3380    3.9980   21.8270 H       1  UNL1        0.0000
     52  H         11.2390    3.5740   20.3450 H       1  UNL1        0.0000
     53  C         10.5910    5.6840   15.6630 C.ar    1  UNL1        0.0000
     54  C         10.2230    6.7750   16.5420 C.ar    1  UNL1        0.0000
     55  C          9.8610    7.9560   15.8360 C.ar    1  UNL1        0.0000
     56  C          9.9190    8.0830   14.4460 C.ar    1  UNL1        0.0000
     57  C         10.3290    7.0050   13.7090 C.ar    1  UNL1        0.0000
     58  N         10.6360    5.8390   14.2920 N.ar    1  UNL1        0.0000
     59  H          9.5360    8.7680   16.3850 H       1  UNL1        0.0000
     60  H          9.6590    8.9690   13.9850 H       1  UNL1        0.0000
     61  H         10.4030    7.0910   12.6830 H       1  UNL1        0.0000
     62  C         11.0920    4.2590   15.9760 C.3     1  UNL1        0.0000
     63  H         11.8890    4.5030   16.6460 H       1  UNL1        0.0000
     64  C         11.7060    3.4820   14.7740 C.3     1  UNL1        0.0000
     65  H         12.4950    2.8510   15.1230 H       1  UNL1        0.0000
     66  H         12.0930    4.1770   14.0590 H       1  UNL1        0.0000
     67  H         10.9480    2.8820   14.3130 H       1  UNL1        0.0000
     68  O         10.1980    3.4090   16.7020 O.3     1  UNL1        0.0000
     69  C          8.8580    3.4310   16.2380 C.3     1  UNL1        0.0000
     70  H          8.5270    2.4300   16.0560 H       1  UNL1        0.0000
     71  H          8.8060    3.9950   15.3290 H       1  UNL1        0.0000
     72  H          8.2320    3.8860   16.9760 H       1  UNL1        0.0000
     73  C         13.7040    4.7510   20.4510 C.3     1  UNL1        0.0000
     74  H         13.8800    4.3580   19.4710 H       1  UNL1        0.0000
     75  H         12.7470    4.4230   20.8000 H       1  UNL1        0.0000
     76  H         14.4650    4.4010   21.1170 H       1  UNL1        0.0000
     77  C         15.1070    6.6260   19.7090 C.3     1  UNL1        0.0000
     78  H         15.8300    5.8740   19.9460 H       1  UNL1        0.0000
     79  H         15.4500    7.5750   20.0650 H       1  UNL1        0.0000
     80  H         14.9710    6.6700   18.6490 H       1  UNL1        0.0000
     81  C          8.5280   -1.3480   22.2720 C.3     1  UNL1        0.0000
     82  F          8.5800   -2.2010   23.3290 F       1  UNL1        0.0000
     83  F          9.2270   -1.9440   21.2700 F       1  UNL1        0.0000
     84  H          7.5170   -1.1790   21.9630 H       1  UNL1        0.0000
     85  N         10.0490    4.5280   26.2640 N.am    1  UNL1        0.0000
     86  C          9.0210    4.8520   27.1240 C.2     1  UNL1        0.0000
     87  O          8.5350    4.0030   27.8590 O.2     1  UNL1        0.0000
     88  H         10.2750    5.1830   25.5640 H       1  UNL1        0.0000
     89  C          8.5740    6.3400   27.1670 C.3     1  UNL1        0.0000
     90  H          7.5060    6.3920   27.2160 H       1  UNL1        0.0000
     91  N          8.8510    7.0500   28.4550 N.am    1  UNL1        0.0000
     92  C          9.8190    8.0300   28.7240 C.2     1  UNL1        0.0000
     93  O          9.9210    8.5000   29.8690 O.2     1  UNL1        0.0000
     94  C         10.7240    8.6060   27.6320 C.3     1  UNL1        0.0000
     95  C         11.2880    9.9740   28.0760 C.3     1  UNL1        0.0000
     96  C         12.7570    9.9560   27.6840 C.3     1  UNL1        0.0000
     97  N         13.1220    8.5640   27.8080 N.am    1  UNL1        0.0000
     98  C         14.3420    8.0010   28.1120 C.2     1  UNL1        0.0000
     99  O         14.5350    6.7870   28.0670 O.2     1  UNL1        0.0000
    100  C         11.9790    7.7220   27.4740 C.3     1  UNL1        0.0000
    101  H         10.1400    8.6680   26.7380 H       1  UNL1        0.0000
    102  H         11.1860   10.0950   29.1350 H       1  UNL1        0.0000
    103  H         10.7650   10.7860   27.6170 H       1  UNL1        0.0000
    104  H         13.3370   10.5640   28.3460 H       1  UNL1        0.0000
    105  H         12.9310   10.3460   26.7040 H       1  UNL1        0.0000
    106  H         12.0600    7.3710   26.4660 H       1  UNL1        0.0000
    107  H         11.9310    6.8630   28.1110 H       1  UNL1        0.0000
    108  C         15.4400    8.9220   28.5220 C.2     1  UNL1        0.0000
    109  C         16.5070    9.1180   27.7300 C.2     1  UNL1        0.0000
    110  H         15.3790    9.4160   29.4250 H       1  UNL1        0.0000
    111  H         16.5760    8.6270   26.8250 H       1  UNL1        0.0000
    112  H         17.2600    9.7580   28.0280 H       1  UNL1        0.0000
    113  C          7.9830    6.7860   29.6000 C.3     1  UNL1        0.0000
    114  H          8.1580    7.5210   30.3570 H       1  UNL1        0.0000
    115  H          8.1960    5.8130   29.9910 H       1  UNL1        0.0000
    116  H          6.9600    6.8310   29.2890 H       1  UNL1        0.0000
    117  C          8.9210    7.0490   25.8020 C.3     1  UNL1        0.0000
    118  H          9.9200    7.3250   26.0660 H       1  UNL1        0.0000
    119  C          8.8240    6.1080   24.6080 C.3     1  UNL1        0.0000
    120  H          9.5950    6.3430   23.9050 H       1  UNL1        0.0000
    121  H          7.8670    6.2220   24.1410 H       1  UNL1        0.0000
    122  H          8.9390    5.0980   24.9410 H       1  UNL1        0.0000
    123  C          8.3170    8.3980   25.4030 C.3     1  UNL1        0.0000
    124  H          7.5840    8.2480   24.6390 H       1  UNL1        0.0000
    125  H          9.0900    9.0400   25.0370 H       1  UNL1        0.0000
    126  H          7.8550    8.8480   26.2570 H       1  UNL1        0.0000
    127  C          8.0270    8.0160   18.6090 C.3     1  UNL1        0.0000
    128  H          7.1060    7.5180   18.8250 H       1  UNL1        0.0000
    129  H          8.2220    8.3270   17.6050 H       1  UNL1        0.0000
    130  C          7.9830    9.3390   19.3560 C.3     1  UNL1        0.0000
    131  H          8.9280    9.5160   19.8270 H       1  UNL1        0.0000
    132  H          7.2150    9.3030   20.1000 H       1  UNL1        0.0000
    133  H          7.7740   10.1300   18.6670 H       1  UNL1        0.0000
@<TRIPOS>BOND
     1     1    54    1
     2     1    31   ar
     3     1     2   ar
     4     2     3    1
     5     2    25   ar
     6     3    33    1
     7     3    32    1
     8     3     4    1
     9     4    77    1
    10     4    73    1
    11     4     5    1
    12     5    34    1
    13     5    35    1
    14     5     6    1
    15     6     7    1
    16     7    24    2
    17     7     8    1
    18     8    23    1
    19     8    36    1
    20     8     9    1
    21     9    10    1
    22     9    37    1
    23    10    21    1
    24    10    11   am
    25    11    12    1
    26    11    20    2
    27    12    13    1
    28    12    85    1
    29    12    38    1
    30    13    14    1
    31    13    40    1
    32    13    39    1
    33    14    15   ar
    34    14    19   ar
    35    15    16   ar
    36    15    41    1
    37    16    29    1
    38    16    17   ar
    39    17    42    1
    40    17    18   ar
    41    18    81    1
    42    18    19   ar
    43    19    43    1
    44    21    22    1
    45    21    44    1
    46    21    45    1
    47    22    46    1
    48    22    47    1
    49    22    23    1
    50    23    49    1
    51    23    48    1
    52    25    26   ar
    53    25    30   ar
    54    26    31   ar
    55    26    27   ar
    56    27    50    1
    57    27    28   ar
    58    28    29   ar
    59    28    51    1
    60    29    30   ar
    61    30    52    1
    62    31   127    1
    63    53    58   ar
    64    53    62    1
    65    53    54   ar
    66    54    55   ar
    67    55    56   ar
    68    55    59    1
    69    56    57   ar
    70    56    60    1
    71    57    61    1
    72    57    58   ar
    73    62    64    1
    74    62    63    1
    75    62    68    1
    76    64    66    1
    77    64    67    1
    78    64    65    1
    79    68    69    1
    80    69    71    1
    81    69    70    1
    82    69    72    1
    83    73    74    1
    84    73    75    1
    85    73    76    1
    86    77    80    1
    87    77    78    1
    88    77    79    1
    89    81    83    1
    90    81    84    1
    91    81    82    1
    92    85    88    1
    93    85    86   am
    94    86    89    1
    95    86    87    2
    96    89   117    1
    97    89    90    1
    98    89    91    1
    99    91    92   am
   100    91   113    1
   101    92    94    1
   102    92    93    2
   103    94   101    1
   104    94   100    1
   105    94    95    1
   106    95   103    1
   107    95    96    1
   108    95   102    1
   109    96   105    1
   110    96    97    1
   111    96   104    1
   112    97   100    1
   113    97    98   am
   114    98    99    2
   115    98   108    1
   116   100   106    1
   117   100   107    1
   118   108   109    2
   119   108   110    1
   120   109   111    1
   121   109   112    1
   122   113   116    1
   123   113   115    1
   124   113   114    1
   125   117   119    1
   126   117   123    1
   127   117   118    1
   128   119   120    1
   129   119   121    1
   130   119   122    1
   131   123   124    1
   132   123   125    1
   133   123   126    1
   134   127   129    1
   135   127   128    1
   136   127   130    1
   137   130   133    1
   138   130   131    1
   139   130   132    1
