@<TRIPOS>MOLECULE
UNL
 32 33 0 0 0
SMALL
GASTEIGER

@<TRIPOS>ATOM
      1  C         11.0240    7.6220   26.9310 C.ar    1  UNL1        0.0000
      2  C         12.2070    6.8880   26.8340 C.ar    1  UNL1        0.0000
      3  C         12.3620    5.9200   25.8400 C.ar    1  UNL1        0.0000
      4  C         11.3200    5.6680   24.9470 C.ar    1  UNL1        0.0000
      5  C         10.1410    6.4110   25.0110 C.ar    1  UNL1        0.0000
      6  C          9.9920    7.3770   26.0120 C.ar    1  UNL1        0.0000
      7  H         12.9720    7.0600   27.5030 H       1  UNL1        0.0000
      8  H         13.2460    5.3930   25.7650 H       1  UNL1        0.0000
      9  H          9.3860    6.2480   24.3260 H       1  UNL1        0.0000
     10  H          9.1140    7.9160   26.0750 H       1  UNL1        0.0000
     11  O          9.5300    7.4050   29.4740 O.2     1  UNL1        0.0000
     12  C         10.0430    8.4520   29.0780 C.2     1  UNL1        0.0000
     13  N         10.7960    8.5900   27.9280 N.am    1  UNL1        0.0000
     14  H         11.2230    9.4660   27.7900 H       1  UNL1        0.0000
     15  C          9.8710    9.7140   29.9110 C.3     1  UNL1        0.0000
     16 CL         10.1970   11.2090   29.0070 Cl      1  UNL1        0.0000
     17  H         10.5460    9.6660   30.7410 H       1  UNL1        0.0000
     18  H          8.8480    9.7490   30.2220 H       1  UNL1        0.0000
     19  S         11.5320    4.4220   23.7060 S.O2    1  UNL1        0.0000
     20  O         10.2220    4.0550   23.2160 O.2     1  UNL1        0.0000
     21  O         12.5850    4.8450   22.8090 O.2     1  UNL1        0.0000
     22  N         12.0590    3.0910   24.6500 N.pl3   1  UNL1        0.0000
     23  H         12.9820    2.9940   24.9810 H       1  UNL1        0.0000
     24  C         11.0250    2.1340   24.9110 C.ar    1  UNL1        0.0000
     25  C         10.1730    2.1380   25.9940 C.ar    1  UNL1        0.0000
     26  C          9.2450    1.0500   25.9320 C.ar    1  UNL1        0.0000
     27  C          9.4120    0.2870   24.7960 C.ar    1  UNL1        0.0000
     28  S         10.6550    0.9030   23.7930 S.2     1  UNL1        0.0000
     29  H          8.5340    0.8570   26.6550 H       1  UNL1        0.0000
     30  H          8.8530   -0.5530   24.5760 H       1  UNL1        0.0000
     31  C         10.1680    3.1200   27.0330 C.1     1  UNL1        0.0000
     32  N         10.1330    3.9030   27.8910 N.1     1  UNL1        0.0000
@<TRIPOS>BOND
     1     1     6   ar
     2     1     2   ar
     3     1    13    1
     4     2     3   ar
     5     2     7    1
     6     3     4   ar
     7     3     8    1
     8     4    19    1
     9     4     5   ar
    10     5     9    1
    11     5     6   ar
    12     6    10    1
    13    11    12    2
    14    12    13   am
    15    12    15    1
    16    13    14    1
    17    15    16    1
    18    15    18    1
    19    15    17    1
    20    19    21    2
    21    19    20    2
    22    19    22    1
    23    22    24    1
    24    22    23    1
    25    24    28   ar
    26    24    25   ar
    27    25    26   ar
    28    25    31    1
    29    26    27   ar
    30    26    29    1
    31    27    28   ar
    32    27    30    1
    33    31    32    3
