@<TRIPOS>MOLECULE
UNL
 35 37 0 0 0
SMALL
GASTEIGER

@<TRIPOS>ATOM
      1  C         12.2920    5.7330   26.4650 C.ar    1  UNL1        0.0000
      2  C         13.6260    5.6100   26.0150 C.ar    1  UNL1        0.0000
      3  C         14.5720    6.6110   26.2610 C.ar    1  UNL1        0.0000
      4  C         14.1920    7.7610   26.9510 C.ar    1  UNL1        0.0000
      5  C         12.8770    7.9040   27.3990 C.ar    1  UNL1        0.0000
      6  C         11.9300    6.8880   27.1730 C.ar    1  UNL1        0.0000
      7  H         13.9070    4.7650   25.4940 H       1  UNL1        0.0000
      8  H         14.8820    8.5070   27.1290 H       1  UNL1        0.0000
      9  H         12.5970    8.7600   27.9010 H       1  UNL1        0.0000
     10  C          8.4070    0.5510   26.6210 C.ar    1  UNL1        0.0000
     11  C          8.6610    1.4420   25.5840 C.ar    1  UNL1        0.0000
     12  F          7.9830    1.2850   24.4400 F       1  UNL1        0.0000
     13  C          9.5860    2.4740   25.7480 C.ar    1  UNL1        0.0000
     14  C         10.2580    2.6340   26.9760 C.ar    1  UNL1        0.0000
     15  C         10.0060    1.7290   28.0110 C.ar    1  UNL1        0.0000
     16  C          9.0910    0.6960   27.8210 C.ar    1  UNL1        0.0000
     17  F          8.8590   -0.1670   28.8180 F       1  UNL1        0.0000
     18  N         11.1170    3.7240   27.1690 N.ar    1  UNL1        0.0000
     19  C         11.4170    4.5920   26.1470 C.ar    1  UNL1        0.0000
     20  C         10.8650    4.5110   24.9270 C.ar    1  UNL1        0.0000
     21  C          9.8890    3.4260   24.6520 C.ar    1  UNL1        0.0000
     22  O          9.3710    3.3630   23.5460 O.2     1  UNL1        0.0000
     23  H          7.7180   -0.2080   26.5010 H       1  UNL1        0.0000
     24  H         10.4980    1.8250   28.9130 H       1  UNL1        0.0000
     25  H         11.5150    3.8730   28.0580 H       1  UNL1        0.0000
     26  H         11.1140    5.1920   24.1930 H       1  UNL1        0.0000
     27  S         10.2710    7.1850   27.7710 S.O2    1  UNL1        0.0000
     28  O          9.4540    7.4860   26.6100 O.2     1  UNL1        0.0000
     29  O          9.8930    6.1030   28.6570 O.2     1  UNL1        0.0000
     30  C         10.4220    8.6780   28.7180 C.3     1  UNL1        0.0000
     31  H          9.5370    9.2660   28.6010 H       1  UNL1        0.0000
     32  H         11.2690    9.2350   28.3730 H       1  UNL1        0.0000
     33  H         10.5540    8.4340   29.7510 H       1  UNL1        0.0000
     34  C         15.9210    6.4500   25.8060 C.1     1  UNL1        0.0000
     35  N         17.0160    6.3110   25.4420 N.1     1  UNL1        0.0000
@<TRIPOS>BOND
     1     1     2   ar
     2     1    19    1
     3     1     6   ar
     4     2     7    1
     5     2     3   ar
     6     3    34    1
     7     3     4   ar
     8     4     8    1
     9     4     5   ar
    10     5     6   ar
    11     5     9    1
    12     6    27    1
    13    10    11   ar
    14    10    23    1
    15    10    16   ar
    16    11    12    1
    17    11    13   ar
    18    13    21   ar
    19    13    14   ar
    20    14    18   ar
    21    14    15   ar
    22    15    16   ar
    23    15    24    1
    24    16    17    1
    25    18    19   ar
    26    18    25    1
    27    19    20   ar
    28    20    26    1
    29    20    21   ar
    30    21    22    2
    31    27    28    2
    32    27    29    2
    33    27    30    1
    34    30    32    1
    35    30    31    1
    36    30    33    1
    37    34    35    3
