@<TRIPOS>MOLECULE
UNL
 39 42 0 0 0
SMALL
GASTEIGER

@<TRIPOS>ATOM
      1  C         12.2290    5.8460   26.4080 C.ar    1  UNL1        0.0000
      2  C         13.5420    5.6450   25.9020 C.ar    1  UNL1        0.0000
      3  C         14.6090    6.5100   26.1870 C.ar    1  UNL1        0.0000
      4  C         14.3780    7.6520   26.9410 C.ar    1  UNL1        0.0000
      5  C         13.0890    7.9250   27.3970 C.ar    1  UNL1        0.0000
      6  C         12.0210    7.0320   27.1500 C.ar    1  UNL1        0.0000
      7  H         13.7180    4.8260   25.2980 H       1  UNL1        0.0000
      8  H         15.1550    8.2950   27.1620 H       1  UNL1        0.0000
      9  H         12.9110    8.7930   27.9250 H       1  UNL1        0.0000
     10  O          9.2620    3.4560   23.4880 O.2     1  UNL1        0.0000
     11  C          9.7610    3.5220   24.6040 C.ar    1  UNL1        0.0000
     12  C          9.4690    2.5540   25.6790 C.ar    1  UNL1        0.0000
     13  C         10.0370    2.7840   26.9430 C.ar    1  UNL1        0.0000
     14  C          9.8630    1.8280   27.9470 C.ar    1  UNL1        0.0000
     15  C          9.0880    0.6960   27.6990 C.ar    1  UNL1        0.0000
     16  F          8.9350   -0.2180   28.6630 F       1  UNL1        0.0000
     17  C          8.4820    0.4940   26.4660 C.ar    1  UNL1        0.0000
     18  C          8.6800    1.4270   25.4550 C.ar    1  UNL1        0.0000
     19  F          8.1070    1.1980   24.2650 F       1  UNL1        0.0000
     20  N         10.8590    3.9040   27.1570 N.ar    1  UNL1        0.0000
     21  C         11.2270    4.7610   26.1450 C.ar    1  UNL1        0.0000
     22  C         10.7370    4.6000   24.9000 C.ar    1  UNL1        0.0000
     23  H         10.3060    1.9590   28.8700 H       1  UNL1        0.0000
     24  H          7.8950   -0.3380   26.3020 H       1  UNL1        0.0000
     25  H         11.1850    4.0830   28.0690 H       1  UNL1        0.0000
     26  H         11.0430    5.2330   24.1450 H       1  UNL1        0.0000
     27  S         10.4290    7.5480   27.7820 S.O2    1  UNL1        0.0000
     28  O          9.5980    7.9120   26.6490 O.2     1  UNL1        0.0000
     29  O          9.9930    6.5150   28.7040 O.2     1  UNL1        0.0000
     30  C         10.7130    9.0610   28.7480 C.3     1  UNL1        0.0000
     31  C          9.5110    9.4370   29.5850 C.3     1  UNL1        0.0000
     32  C          9.8780   10.2570   28.3810 C.3     1  UNL1        0.0000
     33  H         11.7620    8.9150   28.9040 H       1  UNL1        0.0000
     34  H          9.6470    9.8370   30.5680 H       1  UNL1        0.0000
     35  H          8.6290    8.9280   29.9140 H       1  UNL1        0.0000
     36  H          9.2620   10.2300   27.5070 H       1  UNL1        0.0000
     37  H         10.0800   11.2940   28.2080 H       1  UNL1        0.0000
     38  C         15.9340    6.1990   25.7280 C.1     1  UNL1        0.0000
     39  N         16.9980    5.9270   25.3600 N.1     1  UNL1        0.0000
@<TRIPOS>BOND
     1     1     2   ar
     2     1    21    1
     3     1     6   ar
     4     2     7    1
     5     2     3   ar
     6     3    38    1
     7     3     4   ar
     8     4     8    1
     9     4     5   ar
    10     5     6   ar
    11     5     9    1
    12     6    27    1
    13    10    11    2
    14    11    22   ar
    15    11    12   ar
    16    12    18   ar
    17    12    13   ar
    18    13    20   ar
    19    13    14   ar
    20    14    15   ar
    21    14    23    1
    22    15    17   ar
    23    15    16    1
    24    17    18   ar
    25    17    24    1
    26    18    19    1
    27    20    21   ar
    28    20    25    1
    29    21    22   ar
    30    22    26    1
    31    27    28    2
    32    27    29    2
    33    27    30    1
    34    30    32    1
    35    30    33    1
    36    30    31    1
    37    31    32    1
    38    31    35    1
    39    31    34    1
    40    32    36    1
    41    32    37    1
    42    38    39    3
