@<TRIPOS>MOLECULE
UNL
 28 29 0 0 0
SMALL
GASTEIGER

@<TRIPOS>ATOM
      1  O         10.8300    5.7050   25.4360 O.2     1  UNL1        0.0000
      2  C         11.7050    5.3530   26.2180 C.2     1  UNL1        0.0000
      3  N         11.8140    4.1260   26.8400 N.am    1  UNL1        0.0000
      4  H         12.5820    4.0100   27.4450 H       1  UNL1        0.0000
      5  C         10.9520    3.0170   26.7080 C.ar    1  UNL1        0.0000
      6  C         10.8370    2.2540   25.5450 C.ar    1  UNL1        0.0000
      7  C          9.9430    1.1810   25.4880 C.ar    1  UNL1        0.0000
      8  C          9.1600    0.8590   26.5930 C.ar    1  UNL1        0.0000
      9  C          9.2710    1.6090   27.7600 C.ar    1  UNL1        0.0000
     10  C         10.1630    2.6830   27.8180 C.ar    1  UNL1        0.0000
     11  H         11.4150    2.4840   24.7220 H       1  UNL1        0.0000
     12  H          9.8650    0.6220   24.6230 H       1  UNL1        0.0000
     13  H          8.4980    0.0680   26.5470 H       1  UNL1        0.0000
     14  H          8.6950    1.3720   28.5840 H       1  UNL1        0.0000
     15  H         10.2440    3.2350   28.6860 H       1  UNL1        0.0000
     16  C         12.7270    6.3710   26.5950 C.ar    1  UNL1        0.0000
     17  C         14.0510    6.0930   26.2000 C.ar    1  UNL1        0.0000
     18  C         15.0780    6.9950   26.4980 C.ar    1  UNL1        0.0000
     19  C         14.8020    8.1790   27.1920 C.ar    1  UNL1        0.0000
     20  C         13.4920    8.4460   27.6010 C.ar    1  UNL1        0.0000
     21  C         12.4560    7.5460   27.3140 C.ar    1  UNL1        0.0000
     22 CL         10.8920    7.9570   27.9200 Cl      1  UNL1        0.0000
     23  H         14.2630    5.2230   25.6890 H       1  UNL1        0.0000
     24  H         15.5580    8.8480   27.4010 H       1  UNL1        0.0000
     25  H         13.2860    9.3140   28.1200 H       1  UNL1        0.0000
     26  N         16.4560    6.7050   26.0770 N.pl3   1  UNL1        0.0000
     27  O         17.3520    7.4560   26.4830 O.2     1  UNL1        0.0000
     28  O         16.6360    5.7220   25.3470 O.2     1  UNL1        0.0000
@<TRIPOS>BOND
     1     1     2    2
     2     2    16    1
     3     2     3   am
     4     3     5    1
     5     3     4    1
     6     5     6   ar
     7     5    10   ar
     8     6    11    1
     9     6     7   ar
    10     7    12    1
    11     7     8   ar
    12     8    13    1
    13     8     9   ar
    14     9    10   ar
    15     9    14    1
    16    10    15    1
    17    16    17   ar
    18    16    21   ar
    19    17    23    1
    20    17    18   ar
    21    18    26    1
    22    18    19   ar
    23    19    24    1
    24    19    20   ar
    25    20    21   ar
    26    20    25    1
    27    21    22    1
    28    26    28    2
    29    26    27    2
