@<TRIPOS>MOLECULE
UNL
 27 28 0 0 0
SMALL
GASTEIGER

@<TRIPOS>ATOM
      1  O         10.7270    5.6190   25.5310 O.2     1  UNL1        0.0000
      2  C         11.6000    5.2700   26.3200 C.2     1  UNL1        0.0000
      3  N         11.7100    4.0100   26.8740 N.am    1  UNL1        0.0000
      4  H         12.4880    3.8480   27.4550 H       1  UNL1        0.0000
      5  C         10.8160    2.9280   26.6900 C.ar    1  UNL1        0.0000
      6  C          9.8610    2.5420   27.6250 C.ar    1  UNL1        0.0000
      7  C          9.0730    1.4360   27.3510 C.ar    1  UNL1        0.0000
      8  N          9.1720    0.7020   26.2230 N.ar    1  UNL1        0.0000
      9  C         10.0940    1.1020   25.3250 C.ar    1  UNL1        0.0000
     10  C         10.9230    2.1990   25.5060 C.ar    1  UNL1        0.0000
     11  H          9.7400    3.0700   28.5040 H       1  UNL1        0.0000
     12  H          8.3700    1.1560   28.0510 H       1  UNL1        0.0000
     13  H         10.1910    0.5590   24.4540 H       1  UNL1        0.0000
     14  H         11.6020    2.4710   24.7790 H       1  UNL1        0.0000
     15  C         12.6160    6.3010   26.7020 C.ar    1  UNL1        0.0000
     16  C         13.9330    6.0370   26.2710 C.ar    1  UNL1        0.0000
     17  C         14.9650    6.9520   26.5100 C.ar    1  UNL1        0.0000
     18  C         14.7030    8.1470   27.1860 C.ar    1  UNL1        0.0000
     19  C         13.4030    8.4140   27.6220 C.ar    1  UNL1        0.0000
     20  C         12.3600    7.5030   27.3840 C.ar    1  UNL1        0.0000
     21 CL         10.7960    7.9870   27.9430 Cl      1  UNL1        0.0000
     22  H         14.1390    5.1570   25.7720 H       1  UNL1        0.0000
     23  H         15.4610    8.8250   27.3610 H       1  UNL1        0.0000
     24  H         13.2060    9.2920   28.1270 H       1  UNL1        0.0000
     25  N         16.3250    6.6610   26.0380 N.pl3   1  UNL1        0.0000
     26  O         16.4780    5.7010   25.2730 O.2     1  UNL1        0.0000
     27  O         17.2390    7.3940   26.4450 O.2     1  UNL1        0.0000
@<TRIPOS>BOND
     1     1     2    2
     2     2    15    1
     3     2     3   am
     4     3     5    1
     5     3     4    1
     6     5    10   ar
     7     5     6   ar
     8     6     7   ar
     9     6    11    1
    10     7     8   ar
    11     7    12    1
    12     8     9   ar
    13     9    13    1
    14     9    10   ar
    15    10    14    1
    16    15    16   ar
    17    15    20   ar
    18    16    22    1
    19    16    17   ar
    20    17    25    1
    21    17    18   ar
    22    18    23    1
    23    18    19   ar
    24    19    20   ar
    25    19    24    1
    26    20    21    1
    27    25    26    2
    28    25    27    2
