@<TRIPOS>MOLECULE
UNL
 28 29 0 0 0
SMALL
GASTEIGER

@<TRIPOS>ATOM
      1  C         11.7410    5.2960   26.1520 C.2     1  UNL1        0.0000
      2  N         11.7830    4.0930   26.8320 N.am    1  UNL1        0.0000
      3  O         10.9530    5.5680   25.2520 O.2     1  UNL1        0.0000
      4  H         12.4650    4.0040   27.5380 H       1  UNL1        0.0000
      5 CL         10.9130    7.9670   27.8050 Cl      1  UNL1        0.0000
      6  C         12.4890    7.4970   27.2730 C.ar    1  UNL1        0.0000
      7  C         13.5370    8.3710   27.6030 C.ar    1  UNL1        0.0000
      8  C         14.8450    8.1040   27.1920 C.ar    1  UNL1        0.0000
      9  C         15.1050    6.9640   26.4270 C.ar    1  UNL1        0.0000
     10  C         14.0650    6.0890   26.0850 C.ar    1  UNL1        0.0000
     11  C         12.7490    6.3350   26.5280 C.ar    1  UNL1        0.0000
     12  H         13.3390    9.2200   28.1540 H       1  UNL1        0.0000
     13  H         15.6130    8.7430   27.4510 H       1  UNL1        0.0000
     14  H         14.2640    5.2600   25.5050 H       1  UNL1        0.0000
     15  N         16.4800    6.6670   26.0020 N.pl3   1  UNL1        0.0000
     16  O         17.3820    7.3990   26.4340 O.2     1  UNL1        0.0000
     17  O         16.6550    5.7000   25.2510 O.2     1  UNL1        0.0000
     18  C         10.9420    2.9800   26.6140 C.ar    1  UNL1        0.0000
     19  C         10.1610    2.3970   27.6090 C.ar    1  UNL1        0.0000
     20  C          9.4170    1.2690   27.2910 C.ar    1  UNL1        0.0000
     21  N          9.3970    0.7100   26.0560 N.ar    1  UNL1        0.0000
     22  C         10.1390    1.3100   25.1040 C.ar    1  UNL1        0.0000
     23  C         10.9080    2.4410   25.3270 C.ar    1  UNL1        0.0000
     24  H         10.1360    2.7950   28.5610 H       1  UNL1        0.0000
     25  H         10.1350    0.9030   24.1550 H       1  UNL1        0.0000
     26  H         11.4430    2.8750   24.5590 H       1  UNL1        0.0000
     27  C          8.6110    0.6170   28.2900 C.1     1  UNL1        0.0000
     28  N          7.9830    0.0740   29.1020 N.1     1  UNL1        0.0000
@<TRIPOS>BOND
     1     1     3    2
     2     1    11    1
     3     1     2   am
     4     2    18    1
     5     2     4    1
     6     5     6    1
     7     6    11   ar
     8     6     7   ar
     9     7     8   ar
    10     7    12    1
    11     8     9   ar
    12     8    13    1
    13     9    15    1
    14     9    10   ar
    15    10    14    1
    16    10    11   ar
    17    15    17    2
    18    15    16    2
    19    18    23   ar
    20    18    19   ar
    21    19    20   ar
    22    19    24    1
    23    20    21   ar
    24    20    27    1
    25    21    22   ar
    26    22    25    1
    27    22    23   ar
    28    23    26    1
    29    27    28    3
