@<TRIPOS>MOLECULE
UNL
 28 29 0 0 0
SMALL
GASTEIGER

@<TRIPOS>ATOM
      1  C         11.6720    5.2150   26.1650 C.2     1  UNL1        0.0000
      2  N         11.2700    4.2160   27.0340 N.am    1  UNL1        0.0000
      3  O         11.6030    5.1570   24.9420 O.2     1  UNL1        0.0000
      4  H         11.3960    4.3810   27.9960 H       1  UNL1        0.0000
      5 CL         14.7940    6.0030   25.7620 Cl      1  UNL1        0.0000
      6  C         13.5800    6.8960   26.6060 C.ar    1  UNL1        0.0000
      7  C         13.9910    8.1100   27.1800 C.ar    1  UNL1        0.0000
      8  C         13.0960    8.8940   27.9120 C.ar    1  UNL1        0.0000
      9  C         11.7840    8.4480   28.0940 C.ar    1  UNL1        0.0000
     10  C         11.3660    7.2320   27.5380 C.ar    1  UNL1        0.0000
     11  C         12.2540    6.4570   26.7620 C.ar    1  UNL1        0.0000
     12  H         14.9650    8.4270   27.0590 H       1  UNL1        0.0000
     13  H         13.4000    9.7930   28.3160 H       1  UNL1        0.0000
     14  H         10.4020    6.9000   27.6980 H       1  UNL1        0.0000
     15  N         10.8300    9.2730   28.8480 N.pl3   1  UNL1        0.0000
     16  O         10.4980    8.8770   29.9740 O.2     1  UNL1        0.0000
     17  O         10.4260   10.3160   28.3190 O.2     1  UNL1        0.0000
     18  C         10.6970    2.9800   26.6610 C.ar    1  UNL1        0.0000
     19  C         11.0150    2.2960   25.4870 C.ar    1  UNL1        0.0000
     20  C         10.3200    1.1320   25.1500 C.ar    1  UNL1        0.0000
     21  C          9.3460    0.6730   26.0220 C.ar    1  UNL1        0.0000
     22  N          9.0510    1.2700   27.2000 N.ar    1  UNL1        0.0000
     23  C          9.7360    2.4020   27.4920 C.ar    1  UNL1        0.0000
     24  H         11.7620    2.6500   24.8690 H       1  UNL1        0.0000
     25  H          8.8150   -0.1730   25.7580 H       1  UNL1        0.0000
     26  H          9.5330    2.8690   28.3890 H       1  UNL1        0.0000
     27  C         10.5870    0.4390   23.9350 C.1     1  UNL1        0.0000
     28  N         10.8030   -0.1140   22.9360 N.1     1  UNL1        0.0000
@<TRIPOS>BOND
     1     1     3    2
     2     1    11    1
     3     1     2   am
     4     2    18    1
     5     2     4    1
     6     5     6    1
     7     6    11   ar
     8     6     7   ar
     9     7    12    1
    10     7     8   ar
    11     8     9   ar
    12     8    13    1
    13     9    10   ar
    14     9    15    1
    15    10    11   ar
    16    10    14    1
    17    15    17    2
    18    15    16    2
    19    18    19   ar
    20    18    23   ar
    21    19    24    1
    22    19    20   ar
    23    20    27    1
    24    20    21   ar
    25    21    25    1
    26    21    22   ar
    27    22    23   ar
    28    23    26    1
    29    27    28    3
