@<TRIPOS>MOLECULE
UNL
 28 29 0 0 0
SMALL
GASTEIGER

@<TRIPOS>ATOM
      1  C         11.0170    5.0120   26.5490 C.2     1  UNL1        0.0000
      2  N         11.4250    4.5880   25.3010 N.am    1  UNL1        0.0000
      3  O         10.3380    4.3270   27.3090 O.2     1  UNL1        0.0000
      4  H         12.1290    5.1160   24.8580 H       1  UNL1        0.0000
      5 CL          8.8730    7.1140   27.9090 Cl      1  UNL1        0.0000
      6  C         10.5680    7.3330   27.6390 C.ar    1  UNL1        0.0000
      7  C         11.0970    8.5480   28.1100 C.ar    1  UNL1        0.0000
      8  C         12.4540    8.8440   27.9740 C.ar    1  UNL1        0.0000
      9  C         13.2910    7.9230   27.3430 C.ar    1  UNL1        0.0000
     10  C         12.7710    6.7160   26.8530 C.ar    1  UNL1        0.0000
     11  C         11.4030    6.3920   27.0100 C.ar    1  UNL1        0.0000
     12  H         10.4720    9.2320   28.5650 H       1  UNL1        0.0000
     13  H         12.8340    9.7330   28.3360 H       1  UNL1        0.0000
     14  H         13.3980    6.0540   26.3710 H       1  UNL1        0.0000
     15  N         14.7280    8.2090   27.2200 N.pl3   1  UNL1        0.0000
     16  O         15.1200    9.3290   27.5750 O.2     1  UNL1        0.0000
     17  O         15.4570    7.3140   26.7740 O.2     1  UNL1        0.0000
     18  C         10.9270    3.4670   24.5970 C.ar    1  UNL1        0.0000
     19  C         10.0910    3.5280   23.4830 C.ar    1  UNL1        0.0000
     20  N          9.7090    2.4470   22.7520 N.ar    1  UNL1        0.0000
     21  C         10.1670    1.2390   23.1510 C.ar    1  UNL1        0.0000
     22  C         10.9710    1.0680   24.2700 C.ar    1  UNL1        0.0000
     23  C         11.3570    2.1980   24.9970 C.ar    1  UNL1        0.0000
     24  H          9.7400    4.4540   23.1940 H       1  UNL1        0.0000
     25  H         11.2780    0.1250   24.5590 H       1  UNL1        0.0000
     26  H         11.9580    2.0960   25.8290 H       1  UNL1        0.0000
     27  C          9.8110    0.1210   22.3200 C.1     1  UNL1        0.0000
     28  N          9.5270   -0.7510   21.6060 N.1     1  UNL1        0.0000
@<TRIPOS>BOND
     1     1     2   am
     2     1    11    1
     3     1     3    2
     4     2    18    1
     5     2     4    1
     6     5     6    1
     7     6    11   ar
     8     6     7   ar
     9     7     8   ar
    10     7    12    1
    11     8     9   ar
    12     8    13    1
    13     9    10   ar
    14     9    15    1
    15    10    14    1
    16    10    11   ar
    17    15    17    2
    18    15    16    2
    19    18    19   ar
    20    18    23   ar
    21    19    20   ar
    22    19    24    1
    23    20    21   ar
    24    21    27    1
    25    21    22   ar
    26    22    25    1
    27    22    23   ar
    28    23    26    1
    29    27    28    3
