@<TRIPOS>MOLECULE
UNL
 30 31 0 0 0
SMALL
GASTEIGER

@<TRIPOS>ATOM
      1  C         11.3700    5.2610   26.2640 C.2     1  UNL1        0.0000
      2  N         11.4010    4.0520   26.9290 N.am    1  UNL1        0.0000
      3  O         10.5620    5.5660   25.3940 O.2     1  UNL1        0.0000
      4  H         11.9920    3.9900   27.7140 H       1  UNL1        0.0000
      5 CL         10.7680    7.9880   27.9330 Cl      1  UNL1        0.0000
      6  C         12.2890    7.4310   27.3270 C.ar    1  UNL1        0.0000
      7  C         13.3990    8.2490   27.5950 C.ar    1  UNL1        0.0000
      8  C         14.6690    7.9070   27.1250 C.ar    1  UNL1        0.0000
      9  C         14.8310    6.7430   26.3700 C.ar    1  UNL1        0.0000
     10  C         13.7300    5.9230   26.0940 C.ar    1  UNL1        0.0000
     11  C         12.4460    6.2520   26.5830 C.ar    1  UNL1        0.0000
     12  H         13.2740    9.1120   28.1450 H       1  UNL1        0.0000
     13  H         15.4800    8.5100   27.3330 H       1  UNL1        0.0000
     14  H         13.8580    5.0700   25.5280 H       1  UNL1        0.0000
     15  N         16.1650    6.3690   25.8780 N.pl3   1  UNL1        0.0000
     16  O         17.1070    7.1250   26.1510 O.2     1  UNL1        0.0000
     17  O         16.2660    5.3220   25.2290 O.2     1  UNL1        0.0000
     18  C         10.6620    2.8950   26.5910 C.ar    1  UNL1        0.0000
     19  C          9.5480    2.4300   27.2840 C.ar    1  UNL1        0.0000
     20  N          8.8030    1.3590   26.9040 N.ar    1  UNL1        0.0000
     21  C          9.1890    0.7160   25.7830 C.ar    1  UNL1        0.0000
     22  C         10.2870    1.0840   25.0170 C.ar    1  UNL1        0.0000
     23  C         11.0350    2.1900   25.4430 C.ar    1  UNL1        0.0000
     24  H          9.2680    2.9310   28.1420 H       1  UNL1        0.0000
     25  H          8.6340   -0.0980   25.4760 H       1  UNL1        0.0000
     26  H         11.8660    2.4860   24.9060 H       1  UNL1        0.0000
     27  C         10.6700    0.3150   23.7920 C.3     1  UNL1        0.0000
     28  H         10.0160   -0.5240   23.6790 H       1  UNL1        0.0000
     29  H         11.6790   -0.0300   23.8880 H       1  UNL1        0.0000
     30  H         10.5910    0.9490   22.9340 H       1  UNL1        0.0000
@<TRIPOS>BOND
     1     1     3    2
     2     1    11    1
     3     1     2   am
     4     2    18    1
     5     2     4    1
     6     5     6    1
     7     6    11   ar
     8     6     7   ar
     9     7     8   ar
    10     7    12    1
    11     8     9   ar
    12     8    13    1
    13     9    15    1
    14     9    10   ar
    15    10    14    1
    16    10    11   ar
    17    15    17    2
    18    15    16    2
    19    18    23   ar
    20    18    19   ar
    21    19    20   ar
    22    19    24    1
    23    20    21   ar
    24    21    22   ar
    25    21    25    1
    26    22    27    1
    27    22    23   ar
    28    23    26    1
    29    27    30    1
    30    27    28    1
    31    27    29    1
