@<TRIPOS>MOLECULE
UNL
 27 28 0 0 0
SMALL
GASTEIGER

@<TRIPOS>ATOM
      1  C         11.3220    5.3660   25.9340 C.2     1  UNL1        0.0000
      2  N         11.3600    4.1450   26.5800 N.am    1  UNL1        0.0000
      3  O         10.8030    5.5720   24.8430 O.2     1  UNL1        0.0000
      4  H         11.8100    4.1200   27.4550 H       1  UNL1        0.0000
      5 CL         14.5110    5.9460   25.6350 Cl      1  UNL1        0.0000
      6  C         13.3430    6.8660   26.5190 C.ar    1  UNL1        0.0000
      7  C         13.8360    7.9950   27.1930 C.ar    1  UNL1        0.0000
      8  C         12.9890    8.7870   27.9730 C.ar    1  UNL1        0.0000
      9  C         11.6400    8.4410   28.0870 C.ar    1  UNL1        0.0000
     10  C         11.1390    7.3180   27.4180 C.ar    1  UNL1        0.0000
     11  C         11.9830    6.5260   26.6120 C.ar    1  UNL1        0.0000
     12  H         14.8350    8.2430   27.1120 H       1  UNL1        0.0000
     13  H         13.3570    9.6200   28.4600 H       1  UNL1        0.0000
     14  H         10.1430    7.0680   27.5150 H       1  UNL1        0.0000
     15  N         10.7430    9.2640   28.9080 N.pl3   1  UNL1        0.0000
     16  O         10.5050    8.8760   30.0600 O.2     1  UNL1        0.0000
     17  O         10.2870   10.3000   28.4050 O.2     1  UNL1        0.0000
     18  C         10.8160    2.9290   26.1070 C.ar    1  UNL1        0.0000
     19  C         11.3090    2.2230   25.0130 C.ar    1  UNL1        0.0000
     20  C         10.6680    1.0590   24.6110 C.ar    1  UNL1        0.0000
     21  F         11.1240    0.3670   23.5590 F       1  UNL1        0.0000
     22  C          9.5580    0.6200   25.3100 C.ar    1  UNL1        0.0000
     23  N          9.0620    1.2560   26.3950 N.ar    1  UNL1        0.0000
     24  C          9.7080    2.3890   26.7670 C.ar    1  UNL1        0.0000
     25  H         12.1420    2.5620   24.5050 H       1  UNL1        0.0000
     26  H          9.0830   -0.2370   24.9860 H       1  UNL1        0.0000
     27  H          9.3560    2.8900   27.5990 H       1  UNL1        0.0000
@<TRIPOS>BOND
     1     1     3    2
     2     1     2   am
     3     1    11    1
     4     2    18    1
     5     2     4    1
     6     5     6    1
     7     6    11   ar
     8     6     7   ar
     9     7    12    1
    10     7     8   ar
    11     8     9   ar
    12     8    13    1
    13     9    10   ar
    14     9    15    1
    15    10    11   ar
    16    10    14    1
    17    15    17    2
    18    15    16    2
    19    18    19   ar
    20    18    24   ar
    21    19    25    1
    22    19    20   ar
    23    20    21    1
    24    20    22   ar
    25    22    26    1
    26    22    23   ar
    27    23    24   ar
    28    24    27    1
