@<TRIPOS>MOLECULE
UNL
 30 31 0 0 0
SMALL
GASTEIGER

@<TRIPOS>ATOM
      1  C         11.5290    5.0260   25.9960 C.2     1  UNL1        0.0000
      2  N         11.6150    3.7970   26.6230 N.am    1  UNL1        0.0000
      3  O         10.7480    5.3090   25.0970 O.2     1  UNL1        0.0000
      4  H         12.2900    3.7010   27.3340 H       1  UNL1        0.0000
      5 CL         10.5500    7.6060   27.7110 Cl      1  UNL1        0.0000
      6  C         12.1570    7.2190   27.2050 C.ar    1  UNL1        0.0000
      7  C         13.1580    8.1280   27.5780 C.ar    1  UNL1        0.0000
      8  C         14.4860    7.9290   27.1910 C.ar    1  UNL1        0.0000
      9  C         14.8120    6.8200   26.4060 C.ar    1  UNL1        0.0000
     10  C         13.8190    5.9120   26.0190 C.ar    1  UNL1        0.0000
     11  C         12.4830    6.0910   26.4360 C.ar    1  UNL1        0.0000
     12  H         12.9110    8.9530   28.1470 H       1  UNL1        0.0000
     13  H         15.2180    8.5950   27.4820 H       1  UNL1        0.0000
     14  H         14.0670    5.1050   25.4250 H       1  UNL1        0.0000
     15  N         16.2060    6.5960   26.0000 N.pl3   1  UNL1        0.0000
     16  O         16.4350    5.6340   25.2530 O.2     1  UNL1        0.0000
     17  O         17.0620    7.3840   26.4200 O.2     1  UNL1        0.0000
     18  C         10.8200    2.6660   26.3350 C.ar    1  UNL1        0.0000
     19  C         10.9290    1.9130   25.1670 C.ar    1  UNL1        0.0000
     20  C         10.0440    0.8540   24.9250 C.ar    1  UNL1        0.0000
     21  C          9.0880    0.5770   25.8910 C.ar    1  UNL1        0.0000
     22  N          8.9830    1.2480   27.0590 N.ar    1  UNL1        0.0000
     23  C          9.8500    2.2690   27.2540 C.ar    1  UNL1        0.0000
     24  H         11.6630    2.1370   24.4790 H       1  UNL1        0.0000
     25  H          8.4180   -0.1870   25.7070 H       1  UNL1        0.0000
     26  H          9.7900    2.7890   28.1440 H       1  UNL1        0.0000
     27  C         10.0810    0.0500   23.6640 C.3     1  UNL1        0.0000
     28  F          9.0810   -0.8690   23.5680 F       1  UNL1        0.0000
     29  F          9.9790    0.8250   22.5500 F       1  UNL1        0.0000
     30  F         11.2420   -0.6450   23.5280 F       1  UNL1        0.0000
@<TRIPOS>BOND
     1     1     3    2
     2     1    11    1
     3     1     2   am
     4     2    18    1
     5     2     4    1
     6     5     6    1
     7     6    11   ar
     8     6     7   ar
     9     7     8   ar
    10     7    12    1
    11     8     9   ar
    12     8    13    1
    13     9    15    1
    14     9    10   ar
    15    10    14    1
    16    10    11   ar
    17    15    16    2
    18    15    17    2
    19    18    19   ar
    20    18    23   ar
    21    19    24    1
    22    19    20   ar
    23    20    27    1
    24    20    21   ar
    25    21    25    1
    26    21    22   ar
    27    22    23   ar
    28    23    26    1
    29    27    29    1
    30    27    30    1
    31    27    28    1
