@<TRIPOS>MOLECULE
UNL
 31 32 0 0 0
SMALL
GASTEIGER

@<TRIPOS>ATOM
      1  C         11.7980    5.3570   25.8420 C.2     1  UNL1        0.0000
      2  N         11.7870    5.0990   24.4830 N.am    1  UNL1        0.0000
      3  O         11.0520    4.8330   26.6640 O.2     1  UNL1        0.0000
      4  H         12.4290    5.5930   23.9250 H       1  UNL1        0.0000
      5 CL         10.8610    7.8880   27.6410 Cl      1  UNL1        0.0000
      6  C         12.4690    7.4670   27.1650 C.ar    1  UNL1        0.0000
      7  C         13.4920    8.3150   27.6180 C.ar    1  UNL1        0.0000
      8  C         14.8230    8.0820   27.2630 C.ar    1  UNL1        0.0000
      9  C         15.1310    7.0050   26.4270 C.ar    1  UNL1        0.0000
     10  C         14.1170    6.1610   25.9600 C.ar    1  UNL1        0.0000
     11  C         12.7770    6.3660   26.3500 C.ar    1  UNL1        0.0000
     12  H         13.2580    9.1190   28.2200 H       1  UNL1        0.0000
     13  H         15.5720    8.6980   27.6150 H       1  UNL1        0.0000
     14  H         14.3520    5.3820   25.3240 H       1  UNL1        0.0000
     15  N         16.5290    6.7400   26.0630 N.pl3   1  UNL1        0.0000
     16  O         17.3940    7.4970   26.5250 O.2     1  UNL1        0.0000
     17  O         16.7600    5.7710   25.3280 O.2     1  UNL1        0.0000
     18  C         10.9310    4.1840   23.8290 C.ar    1  UNL1        0.0000
     19  C         10.9110    2.8170   24.0920 C.ar    1  UNL1        0.0000
     20  C         10.1190    1.9500   23.3220 C.ar    1  UNL1        0.0000
     21  C          9.3450    2.5070   22.3100 C.ar    1  UNL1        0.0000
     22  N          9.2840    3.8470   22.0800 N.ar    1  UNL1        0.0000
     23  C         10.0660    4.6470   22.8440 C.ar    1  UNL1        0.0000
     24  H         11.4850    2.4370   24.8610 H       1  UNL1        0.0000
     25  H         10.0140    5.6660   22.6850 H       1  UNL1        0.0000
     26  C         10.1220    0.4730   23.5640 C.3     1  UNL1        0.0000
     27  F         10.5050   -0.2520   22.4760 F       1  UNL1        0.0000
     28  F         10.9720    0.1120   24.5620 F       1  UNL1        0.0000
     29  F          8.8960   -0.0000   23.9100 F       1  UNL1        0.0000
     30  C          8.5770    1.7030   21.3920 C.1     1  UNL1        0.0000
     31  N          7.9870    1.0650   20.6260 N.1     1  UNL1        0.0000
@<TRIPOS>BOND
     1     1     2   am
     2     1    11    1
     3     1     3    2
     4     2    18    1
     5     2     4    1
     6     5     6    1
     7     6    11   ar
     8     6     7   ar
     9     7     8   ar
    10     7    12    1
    11     8     9   ar
    12     8    13    1
    13     9    10   ar
    14     9    15    1
    15    10    14    1
    16    10    11   ar
    17    15    17    2
    18    15    16    2
    19    18    23   ar
    20    18    19   ar
    21    19    20   ar
    22    19    24    1
    23    20    21   ar
    24    20    26    1
    25    21    30    1
    26    21    22   ar
    27    22    23   ar
    28    23    25    1
    29    26    27    1
    30    26    29    1
    31    26    28    1
    32    30    31    3
