@<TRIPOS>MOLECULE
UNL
 30 31 0 0 0
SMALL
GASTEIGER

@<TRIPOS>ATOM
      1  C         10.6750    5.8600   26.5520 C.2     1  UNL1        0.0000
      2  N         11.1970    4.6350   26.9240 N.am    1  UNL1        0.0000
      3  O          9.8060    6.0200   25.7030 O.2     1  UNL1        0.0000
      4  H         11.7600    4.6150   27.7320 H       1  UNL1        0.0000
      5 CL         13.8760    6.4330   26.6260 Cl      1  UNL1        0.0000
      6  C         12.6070    7.4380   27.2300 C.ar    1  UNL1        0.0000
      7  C         13.0060    8.6530   27.8160 C.ar    1  UNL1        0.0000
      8  C         12.0640    9.5370   28.3490 C.ar    1  UNL1        0.0000
      9  C         10.7110    9.1960   28.3130 C.ar    1  UNL1        0.0000
     10  C         10.3040    7.9780   27.7510 C.ar    1  UNL1        0.0000
     11  C         11.2490    7.0920   27.1820 C.ar    1  UNL1        0.0000
     12  H         14.0080    8.8950   27.8530 H       1  UNL1        0.0000
     13  H         12.3660   10.4320   28.7630 H       1  UNL1        0.0000
     14  H          9.3040    7.7240   27.7520 H       1  UNL1        0.0000
     15  N          9.7090   10.1340   28.8360 N.pl3   1  UNL1        0.0000
     16  O          8.6960    9.6540   29.3640 O.2     1  UNL1        0.0000
     17  O          9.9390   11.3470   28.7270 O.2     1  UNL1        0.0000
     18  C         10.9950    3.4060   26.2500 C.ar    1  UNL1        0.0000
     19  C         10.2260    2.3520   26.7320 C.ar    1  UNL1        0.0000
     20  N          9.9310    1.2300   26.0230 N.ar    1  UNL1        0.0000
     21  C         10.4340    1.1280   24.7740 C.ar    1  UNL1        0.0000
     22  C         11.2610    2.1040   24.2270 C.ar    1  UNL1        0.0000
     23  C         11.5370    3.2530   24.9730 C.ar    1  UNL1        0.0000
     24  H          9.8560    2.4260   27.6920 H       1  UNL1        0.0000
     25  H         11.6630    1.9810   23.2850 H       1  UNL1        0.0000
     26  H         12.1440    3.9900   24.5790 H       1  UNL1        0.0000
     27  C         10.0000   -0.0530   23.9610 C.3     1  UNL1        0.0000
     28  H          9.1530   -0.5140   24.4240 H       1  UNL1        0.0000
     29  H         10.8020   -0.7610   23.9030 H       1  UNL1        0.0000
     30  H          9.7370    0.2690   22.9750 H       1  UNL1        0.0000
@<TRIPOS>BOND
     1     1     3    2
     2     1     2   am
     3     1    11    1
     4     2    18    1
     5     2     4    1
     6     5     6    1
     7     6    11   ar
     8     6     7   ar
     9     7    12    1
    10     7     8   ar
    11     8     9   ar
    12     8    13    1
    13     9    10   ar
    14     9    15    1
    15    10    11   ar
    16    10    14    1
    17    15    17    2
    18    15    16    2
    19    18    23   ar
    20    18    19   ar
    21    19    20   ar
    22    19    24    1
    23    20    21   ar
    24    21    27    1
    25    21    22   ar
    26    22    25    1
    27    22    23   ar
    28    23    26    1
    29    27    30    1
    30    27    29    1
    31    27    28    1
