@<TRIPOS>MOLECULE
UNL
 30 31 0 0 0
SMALL
GASTEIGER

@<TRIPOS>ATOM
      1  C         11.7220    5.2090   26.0560 C.2     1  UNL1        0.0000
      2  N         11.7600    3.9890   26.7040 N.am    1  UNL1        0.0000
      3  O         10.9680    5.5020   25.1330 O.2     1  UNL1        0.0000
      4  H         12.4230    3.8880   27.4250 H       1  UNL1        0.0000
      5 CL         10.7820    7.8100   27.7660 Cl      1  UNL1        0.0000
      6  C         12.3840    7.3920   27.2640 C.ar    1  UNL1        0.0000
      7  C         13.3990    8.2860   27.6370 C.ar    1  UNL1        0.0000
      8  C         14.7220    8.0670   27.2490 C.ar    1  UNL1        0.0000
      9  C         15.0310    6.9500   26.4690 C.ar    1  UNL1        0.0000
     10  C         14.0270    6.0530   26.0880 C.ar    1  UNL1        0.0000
     11  C         12.6930    6.2540   26.5000 C.ar    1  UNL1        0.0000
     12  H         13.1640    9.1160   28.2050 H       1  UNL1        0.0000
     13  H         15.4650    8.7240   27.5360 H       1  UNL1        0.0000
     14  H         14.2640    5.2380   25.5020 H       1  UNL1        0.0000
     15  N         16.4180    6.7110   26.0530 N.pl3   1  UNL1        0.0000
     16  O         17.2910    7.4730   26.5000 O.2     1  UNL1        0.0000
     17  O         16.6390    5.7620   25.2900 O.2     1  UNL1        0.0000
     18  C         10.9390    2.8730   26.4320 C.ar    1  UNL1        0.0000
     19  C         11.0770    2.0560   25.3120 C.ar    1  UNL1        0.0000
     20  C         10.1730    1.0120   25.0840 C.ar    1  UNL1        0.0000
     21  C          9.1660    0.8140   26.0210 C.ar    1  UNL1        0.0000
     22  N          9.0220    1.5530   27.1440 N.ar    1  UNL1        0.0000
     23  C          9.9130    2.5580   27.3210 C.ar    1  UNL1        0.0000
     24  H         11.8500    2.2190   24.6480 H       1  UNL1        0.0000
     25  H          8.4860    0.0560   25.8500 H       1  UNL1        0.0000
     26  H          9.8260    3.1310   28.1750 H       1  UNL1        0.0000
     27  C         10.2800    0.1400   23.8740 C.3     1  UNL1        0.0000
     28  H          9.3000   -0.1220   23.5360 H       1  UNL1        0.0000
     29  H         10.8210   -0.7490   24.1220 H       1  UNL1        0.0000
     30  H         10.7960    0.6670   23.1000 H       1  UNL1        0.0000
@<TRIPOS>BOND
     1     1     3    2
     2     1    11    1
     3     1     2   am
     4     2    18    1
     5     2     4    1
     6     5     6    1
     7     6    11   ar
     8     6     7   ar
     9     7     8   ar
    10     7    12    1
    11     8     9   ar
    12     8    13    1
    13     9    15    1
    14     9    10   ar
    15    10    14    1
    16    10    11   ar
    17    15    17    2
    18    15    16    2
    19    18    19   ar
    20    18    23   ar
    21    19    24    1
    22    19    20   ar
    23    20    27    1
    24    20    21   ar
    25    21    25    1
    26    21    22   ar
    27    22    23   ar
    28    23    26    1
    29    27    30    1
    30    27    28    1
    31    27    29    1
