@<TRIPOS>MOLECULE
UNL
 30 31 0 0 0
SMALL
GASTEIGER

@<TRIPOS>ATOM
      1  C         10.5430    5.8600   26.1580 C.2     1  UNL1        0.0000
      2  N         10.7560    4.6130   26.7150 N.am    1  UNL1        0.0000
      3  O         10.0380    6.0580   25.0570 O.2     1  UNL1        0.0000
      4  H         11.0000    4.5820   27.6670 H       1  UNL1        0.0000
      5 CL         13.6960    6.4030   26.7460 Cl      1  UNL1        0.0000
      6  C         12.3490    7.3880   27.2000 C.ar    1  UNL1        0.0000
      7  C         12.6500    8.5670   27.9000 C.ar    1  UNL1        0.0000
      8  C         11.6340    9.4230   28.3310 C.ar    1  UNL1        0.0000
      9  C         10.3020    9.0920   28.0730 C.ar    1  UNL1        0.0000
     10  C          9.9910    7.9140   27.3830 C.ar    1  UNL1        0.0000
     11  C         11.0140    7.0540   26.9260 C.ar    1  UNL1        0.0000
     12  H         13.6350    8.8050   28.0960 H       1  UNL1        0.0000
     13  H         11.8660   10.2910   28.8380 H       1  UNL1        0.0000
     14  H          9.0030    7.6730   27.2060 H       1  UNL1        0.0000
     15  N          9.2250    9.9900   28.5120 N.pl3   1  UNL1        0.0000
     16  O          8.1650    9.4670   28.8850 O.2     1  UNL1        0.0000
     17  O          9.4440   11.2070   28.4920 O.2     1  UNL1        0.0000
     18  C         10.6540    3.3750   26.0370 C.ar    1  UNL1        0.0000
     19  C          9.7470    2.3680   26.3500 C.ar    1  UNL1        0.0000
     20  N          9.5810    1.2330   25.6220 N.ar    1  UNL1        0.0000
     21  C         10.3630    1.0600   24.5210 C.ar    1  UNL1        0.0000
     22  C         11.3330    1.9990   24.1660 C.ar    1  UNL1        0.0000
     23  C         11.4730    3.1630   24.9280 C.ar    1  UNL1        0.0000
     24  H          9.1600    2.4920   27.1910 H       1  UNL1        0.0000
     25  H         11.9430    1.8340   23.3500 H       1  UNL1        0.0000
     26  H         12.1830    3.8660   24.6690 H       1  UNL1        0.0000
     27  C         10.1480   -0.1570   23.6310 C.3     1  UNL1        0.0000
     28  F          9.2310   -1.0500   24.1020 F       1  UNL1        0.0000
     29  F          9.7160    0.1890   22.3820 F       1  UNL1        0.0000
     30  F         11.2950   -0.8700   23.4320 F       1  UNL1        0.0000
@<TRIPOS>BOND
     1     1     3    2
     2     1     2   am
     3     1    11    1
     4     2    18    1
     5     2     4    1
     6     5     6    1
     7     6    11   ar
     8     6     7   ar
     9     7    12    1
    10     7     8   ar
    11     8     9   ar
    12     8    13    1
    13     9    10   ar
    14     9    15    1
    15    10    11   ar
    16    10    14    1
    17    15    17    2
    18    15    16    2
    19    18    23   ar
    20    18    19   ar
    21    19    20   ar
    22    19    24    1
    23    20    21   ar
    24    21    27    1
    25    21    22   ar
    26    22    25    1
    27    22    23   ar
    28    23    26    1
    29    27    29    1
    30    27    30    1
    31    27    28    1
