@<TRIPOS>MOLECULE
UNL
 28 29 0 0 0
SMALL
GASTEIGER

@<TRIPOS>ATOM
      1  C         12.1840    5.2230   25.5800 C.2     1  UNL1        0.0000
      2  N         11.5370    4.1770   26.1920 N.am    1  UNL1        0.0000
      3  C         11.0430    3.0220   25.5810 C.ar    1  UNL1        0.0000
      4  N         10.2640    2.2610   26.3850 N.ar    1  UNL1        0.0000
      5  C          9.7060    1.1460   25.8430 C.ar    1  UNL1        0.0000
      6  C          9.9050    0.7350   24.5330 C.ar    1  UNL1        0.0000
      7  C         10.7410    1.5070   23.7370 C.ar    1  UNL1        0.0000
      8  C         11.3170    2.6630   24.2670 C.ar    1  UNL1        0.0000
      9  O         12.3790    5.3270   24.3730 O.2     1  UNL1        0.0000
     10  H         11.4060    4.2500   27.1660 H       1  UNL1        0.0000
     11  H          9.0980    0.5690   26.4440 H       1  UNL1        0.0000
     12  H         10.9370    1.2280   22.7630 H       1  UNL1        0.0000
     13  H         11.9410    3.2470   23.6870 H       1  UNL1        0.0000
     14 CL         15.3010    6.0510   25.7540 Cl      1  UNL1        0.0000
     15  C         13.9650    6.8070   26.5440 C.ar    1  UNL1        0.0000
     16  C         14.2540    7.9560   27.2970 C.ar    1  UNL1        0.0000
     17  C         13.2360    8.6680   27.9390 C.ar    1  UNL1        0.0000
     18  C         11.9170    8.2180   27.8380 C.ar    1  UNL1        0.0000
     19  C         11.6180    7.0700   27.0940 C.ar    1  UNL1        0.0000
     20  C         12.6410    6.3580   26.4330 C.ar    1  UNL1        0.0000
     21  H         15.2310    8.2800   27.3780 H       1  UNL1        0.0000
     22  H         13.4570    9.5180   28.4820 H       1  UNL1        0.0000
     23  H         10.6420    6.7410   27.0300 H       1  UNL1        0.0000
     24  N         10.8370    8.9580   28.5000 N.pl3   1  UNL1        0.0000
     25  O         10.6570    8.7470   29.7100 O.2     1  UNL1        0.0000
     26  O         10.1710    9.7420   27.8110 O.2     1  UNL1        0.0000
     27  C          9.2630   -0.4360   24.0290 C.1     1  UNL1        0.0000
     28  N          8.7480   -1.3950   23.6270 N.1     1  UNL1        0.0000
@<TRIPOS>BOND
     1     1     9    2
     2     1     2   am
     3     1    20    1
     4     2     3    1
     5     2    10    1
     6     3     8   ar
     7     3     4   ar
     8     4     5   ar
     9     5     6   ar
    10     5    11    1
    11     6     7   ar
    12     6    27    1
    13     7    12    1
    14     7     8   ar
    15     8    13    1
    16    14    15    1
    17    15    20   ar
    18    15    16   ar
    19    16    21    1
    20    16    17   ar
    21    17    18   ar
    22    17    22    1
    23    18    19   ar
    24    18    24    1
    25    19    20   ar
    26    19    23    1
    27    24    26    2
    28    24    25    2
    29    27    28    3
