@<TRIPOS>MOLECULE
UNL
 34 35 0 0 0
SMALL
GASTEIGER

@<TRIPOS>ATOM
      1  C         10.5870    5.2210   26.9560 C.2     1  UNL1        0.0000
      2  N         10.7710    4.8510   25.6380 N.am    1  UNL1        0.0000
      3  O         10.1140    4.5210   27.8440 O.2     1  UNL1        0.0000
      4  H         11.0920    5.5540   25.0270 H       1  UNL1        0.0000
      5 CL         13.6590    6.2250   26.8560 Cl      1  UNL1        0.0000
      6  C         12.2640    7.1460   27.2930 C.ar    1  UNL1        0.0000
      7  C         12.4930    8.4810   27.6620 C.ar    1  UNL1        0.0000
      8  C         11.4370    9.3010   28.0680 C.ar    1  UNL1        0.0000
      9  C         10.1420    8.7760   28.1170 C.ar    1  UNL1        0.0000
     10  C          9.9010    7.4460   27.7530 C.ar    1  UNL1        0.0000
     11  C         10.9610    6.6220   27.3210 C.ar    1  UNL1        0.0000
     12  H         13.4530    8.8610   27.6330 H       1  UNL1        0.0000
     13  H         11.6110   10.2850   28.3290 H       1  UNL1        0.0000
     14  H          8.9440    7.0660   27.8020 H       1  UNL1        0.0000
     15  N          9.0240    9.6330   28.5410 N.pl3   1  UNL1        0.0000
     16  O          8.0920    9.0940   29.1520 O.2     1  UNL1        0.0000
     17  O          9.0880   10.8390   28.2680 O.2     1  UNL1        0.0000
     18  C         10.5490    3.5780   25.0680 C.ar    1  UNL1        0.0000
     19  C         11.4020    2.4840   25.2410 C.ar    1  UNL1        0.0000
     20  C         11.1720    1.2840   24.5590 C.ar    1  UNL1        0.0000
     21  C         10.0710    1.1720   23.7080 C.ar    1  UNL1        0.0000
     22  C          9.1850    2.2380   23.5580 C.ar    1  UNL1        0.0000
     23  C          9.4210    3.4340   24.2450 C.ar    1  UNL1        0.0000
     24  H         12.2090    2.5630   25.8800 H       1  UNL1        0.0000
     25  H         11.8130    0.4860   24.6840 H       1  UNL1        0.0000
     26  H          8.3610    2.1460   22.9430 H       1  UNL1        0.0000
     27  H          8.7590    4.2180   24.1470 H       1  UNL1        0.0000
     28  S          9.8930   -0.2780   22.6940 S.O2    1  UNL1        0.0000
     29  O          9.5320    0.1670   21.3610 O.2     1  UNL1        0.0000
     30  O         11.0700   -1.1000   22.9050 O.2     1  UNL1        0.0000
     31  C          8.5000   -1.1270   23.3800 C.3     1  UNL1        0.0000
     32  H          8.8400   -1.8610   24.0810 H       1  UNL1        0.0000
     33  H          7.9540   -1.6070   22.5960 H       1  UNL1        0.0000
     34  H          7.8650   -0.4240   23.8800 H       1  UNL1        0.0000
@<TRIPOS>BOND
     1     1     2   am
     2     1    11    1
     3     1     3    2
     4     2     4    1
     5     2    18    1
     6     5     6    1
     7     6    11   ar
     8     6     7   ar
     9     7    12    1
    10     7     8   ar
    11     8     9   ar
    12     8    13    1
    13     9    10   ar
    14     9    15    1
    15    10    11   ar
    16    10    14    1
    17    15    17    2
    18    15    16    2
    19    18    23   ar
    20    18    19   ar
    21    19    20   ar
    22    19    24    1
    23    20    21   ar
    24    20    25    1
    25    21    28    1
    26    21    22   ar
    27    22    26    1
    28    22    23   ar
    29    23    27    1
    30    28    29    2
    31    28    30    2
    32    28    31    1
    33    31    33    1
    34    31    34    1
    35    31    32    1
