@<TRIPOS>MOLECULE
UNL
 27 28 0 0 0
SMALL
GASTEIGER

@<TRIPOS>ATOM
      1  C         11.6660    5.2620   25.9830 C.2     1  UNL1        0.0000
      2  N         11.6030    4.0710   26.6770 N.am    1  UNL1        0.0000
      3  O         11.0040    5.5310   24.9880 O.2     1  UNL1        0.0000
      4  H         12.0730    4.0320   27.5410 H       1  UNL1        0.0000
      5 CL         10.8070    7.8420   27.7680 Cl      1  UNL1        0.0000
      6  C         12.3920    7.3990   27.2420 C.ar    1  UNL1        0.0000
      7  C         13.4370    8.2500   27.6390 C.ar    1  UNL1        0.0000
      8  C         14.7550    7.9970   27.2450 C.ar    1  UNL1        0.0000
      9  C         15.0280    6.8910   26.4370 C.ar    1  UNL1        0.0000
     10  C         13.9920    6.0410   26.0320 C.ar    1  UNL1        0.0000
     11  C         12.6640    6.2780   26.4410 C.ar    1  UNL1        0.0000
     12  H         13.2300    9.0710   28.2280 H       1  UNL1        0.0000
     13  H         15.5180    8.6220   27.5490 H       1  UNL1        0.0000
     14  H         14.2030    5.2320   25.4260 H       1  UNL1        0.0000
     15  N         16.4120    6.6090   26.0270 N.pl3   1  UNL1        0.0000
     16  O         16.6040    5.6210   25.3050 O.2     1  UNL1        0.0000
     17  O         17.2960    7.3800   26.4210 O.2     1  UNL1        0.0000
     18  C         10.9270    2.9010   26.2640 C.ar    1  UNL1        0.0000
     19  C          9.7980    2.3690   26.8840 C.ar    1  UNL1        0.0000
     20  N          9.1200    1.2820   26.4320 N.ar    1  UNL1        0.0000
     21  C          9.5920    0.6880   25.3190 C.ar    1  UNL1        0.0000
     22  C         10.7130    1.1270   24.6370 C.ar    1  UNL1        0.0000
     23  C         11.3870    2.2500   25.1170 C.ar    1  UNL1        0.0000
     24  H          9.4540    2.8310   27.7410 H       1  UNL1        0.0000
     25  H          9.0910   -0.1370   24.9550 H       1  UNL1        0.0000
     26  H         11.0450    0.6340   23.7920 H       1  UNL1        0.0000
     27  H         12.2230    2.6000   24.6250 H       1  UNL1        0.0000
@<TRIPOS>BOND
     1     1     3    2
     2     1    11    1
     3     1     2   am
     4     2    18    1
     5     2     4    1
     6     5     6    1
     7     6    11   ar
     8     6     7   ar
     9     7     8   ar
    10     7    12    1
    11     8     9   ar
    12     8    13    1
    13     9    15    1
    14     9    10   ar
    15    10    14    1
    16    10    11   ar
    17    15    16    2
    18    15    17    2
    19    18    23   ar
    20    18    19   ar
    21    19    20   ar
    22    19    24    1
    23    20    21   ar
    24    21    22   ar
    25    21    25    1
    26    22    26    1
    27    22    23   ar
    28    23    27    1
