@<TRIPOS>MOLECULE
UNL
 32 33 0 0 0
SMALL
GASTEIGER

@<TRIPOS>ATOM
      1  C         11.5060    5.8200   26.8350 C.2     1  UNL1        0.0000
      2  N         11.7520    4.4700   26.9940 N.am    1  UNL1        0.0000
      3  O         10.4270    6.3280   26.5400 O.2     1  UNL1        0.0000
      4  H         12.6820    4.2150   27.1950 H       1  UNL1        0.0000
      5 CL         11.1940    8.6940   28.2850 Cl      1  UNL1        0.0000
      6  C         12.6310    7.9960   27.6250 C.ar    1  UNL1        0.0000
      7  C         13.7980    8.7690   27.7210 C.ar    1  UNL1        0.0000
      8  C         15.0050    8.3100   27.1870 C.ar    1  UNL1        0.0000
      9  C         15.0410    7.0750   26.5330 C.ar    1  UNL1        0.0000
     10  C         13.8810    6.2990   26.4260 C.ar    1  UNL1        0.0000
     11  C         12.6680    6.7450   26.9900 C.ar    1  UNL1        0.0000
     12  H         13.7650    9.6860   28.1920 H       1  UNL1        0.0000
     13  H         15.8630    8.8780   27.2740 H       1  UNL1        0.0000
     14  H         13.9140    5.3940   25.9310 H       1  UNL1        0.0000
     15  N         16.3050    6.5830   25.9710 N.pl3   1  UNL1        0.0000
     16  O         17.3390    7.1980   26.2630 O.2     1  UNL1        0.0000
     17  O         16.2620    5.5770   25.2510 O.2     1  UNL1        0.0000
     18  C         10.8160    3.4160   26.8990 C.ar    1  UNL1        0.0000
     19  C          9.8460    3.1480   27.8670 C.ar    1  UNL1        0.0000
     20  C          9.0090    2.0300   27.7530 C.ar    1  UNL1        0.0000
     21  C          9.1270    1.1700   26.6580 C.ar    1  UNL1        0.0000
     22  C         10.0660    1.4620   25.6620 C.ar    1  UNL1        0.0000
     23  C         10.8980    2.5820   25.7780 C.ar    1  UNL1        0.0000
     24  H          9.7450    3.7810   28.6760 H       1  UNL1        0.0000
     25  H          8.3020    1.8420   28.4810 H       1  UNL1        0.0000
     26  H         10.1460    0.8450   24.8380 H       1  UNL1        0.0000
     27  H         11.5760    2.7940   25.0290 H       1  UNL1        0.0000
     28  C          8.3410   -0.0870   26.5500 C.2     1  UNL1        0.0000
     29  N          8.0330   -0.5420   25.2980 N.am    1  UNL1        0.0000
     30  O          7.9850   -0.7060   27.5450 O.2     1  UNL1        0.0000
     31  H          8.3240   -0.0360   24.5050 H       1  UNL1        0.0000
     32  H          7.5180   -1.3750   25.1900 H       1  UNL1        0.0000
@<TRIPOS>BOND
     1     1     3    2
     2     1    11    1
     3     1     2   am
     4     2    18    1
     5     2     4    1
     6     5     6    1
     7     6    11   ar
     8     6     7   ar
     9     7     8   ar
    10     7    12    1
    11     8     9   ar
    12     8    13    1
    13     9    15    1
    14     9    10   ar
    15    10    14    1
    16    10    11   ar
    17    15    17    2
    18    15    16    2
    19    18    23   ar
    20    18    19   ar
    21    19    20   ar
    22    19    24    1
    23    20    21   ar
    24    20    25    1
    25    21    22   ar
    26    21    28    1
    27    22    26    1
    28    22    23   ar
    29    23    27    1
    30    28    29   am
    31    28    30    2
    32    29    31    1
    33    29    32    1
