@<TRIPOS>MOLECULE
UNL
 31 32 0 0 0
SMALL
GASTEIGER

@<TRIPOS>ATOM
      1  C         11.5210    5.3160   25.7720 C.2     1  UNL1        0.0000
      2  N         11.4850    4.0960   26.4200 N.am    1  UNL1        0.0000
      3  O         11.1070    5.5260   24.6360 O.2     1  UNL1        0.0000
      4  H         11.8330    4.0700   27.3400 H       1  UNL1        0.0000
      5 CL         14.7130    5.9530   25.6600 Cl      1  UNL1        0.0000
      6  C         13.4830    6.8380   26.4920 C.ar    1  UNL1        0.0000
      7  C         13.9160    7.9640   27.2130 C.ar    1  UNL1        0.0000
      8  C         13.0140    8.7300   27.9540 C.ar    1  UNL1        0.0000
      9  C         11.6670    8.3600   27.9870 C.ar    1  UNL1        0.0000
     10  C         11.2250    7.2400   27.2730 C.ar    1  UNL1        0.0000
     11  C         12.1270    6.4720   26.5030 C.ar    1  UNL1        0.0000
     12  H         14.9130    8.2280   27.1920 H       1  UNL1        0.0000
     13  H         13.3390    9.5600   28.4730 H       1  UNL1        0.0000
     14  H         10.2290    6.9710   27.3090 H       1  UNL1        0.0000
     15  N         10.7080    9.1550   28.7660 N.pl3   1  UNL1        0.0000
     16  O         10.0870   10.0470   28.1680 O.2     1  UNL1        0.0000
     17  O         10.5740    8.8850   29.9650 O.2     1  UNL1        0.0000
     18  C         10.9990    2.8800   25.8870 C.ar    1  UNL1        0.0000
     19  C         11.4520    2.3280   24.6930 C.ar    1  UNL1        0.0000
     20  C         10.8820    1.1460   24.2490 C.ar    1  UNL1        0.0000
     21  N          9.8980    0.4970   24.9000 N.ar    1  UNL1        0.0000
     22  C          9.4760    1.0470   26.0560 C.ar    1  UNL1        0.0000
     23  C         10.0080    2.2050   26.6000 C.ar    1  UNL1        0.0000
     24  H         12.1990    2.7890   24.1490 H       1  UNL1        0.0000
     25  H         11.2310    0.7400   23.3670 H       1  UNL1        0.0000
     26  H          9.6790    2.5600   27.5120 H       1  UNL1        0.0000
     27  O          8.4430    0.4570   26.7580 O.3     1  UNL1        0.0000
     28  C          8.7480    0.2850   28.1390 C.3     1  UNL1        0.0000
     29  H          9.7090   -0.1750   28.2390 H       1  UNL1        0.0000
     30  H          8.0060   -0.3380   28.5940 H       1  UNL1        0.0000
     31  H          8.7580    1.2390   28.6250 H       1  UNL1        0.0000
@<TRIPOS>BOND
     1     1     3    2
     2     1     2   am
     3     1    11    1
     4     2    18    1
     5     2     4    1
     6     5     6    1
     7     6    11   ar
     8     6     7   ar
     9     7    12    1
    10     7     8   ar
    11     8     9   ar
    12     8    13    1
    13     9    10   ar
    14     9    15    1
    15    10    11   ar
    16    10    14    1
    17    15    16    2
    18    15    17    2
    19    18    19   ar
    20    18    23   ar
    21    19    24    1
    22    19    20   ar
    23    20    25    1
    24    20    21   ar
    25    21    22   ar
    26    22    23   ar
    27    22    27    1
    28    23    26    1
    29    27    28    1
    30    28    29    1
    31    28    30    1
    32    28    31    1
