@<TRIPOS>MOLECULE
UNL
 29 30 0 0 0
SMALL
GASTEIGER

@<TRIPOS>ATOM
      1  C         11.7280    5.2010   26.1510 C.2     1  UNL1        0.0000
      2  N         11.7970    3.9930   26.8210 N.am    1  UNL1        0.0000
      3  O         10.9380    5.4690   25.2500 O.2     1  UNL1        0.0000
      4  H         12.4930    3.9020   27.5120 H       1  UNL1        0.0000
      5 CL         10.8030    7.8650   27.7580 Cl      1  UNL1        0.0000
      6  C         12.4000    7.4320   27.2590 C.ar    1  UNL1        0.0000
      7  C         13.4180    8.3410   27.5850 C.ar    1  UNL1        0.0000
      8  C         14.7390    8.1030   27.2000 C.ar    1  UNL1        0.0000
      9  C         15.0420    6.9550   26.4630 C.ar    1  UNL1        0.0000
     10  C         14.0330    6.0470   26.1230 C.ar    1  UNL1        0.0000
     11  C         12.7030    6.2640   26.5400 C.ar    1  UNL1        0.0000
     12  H         13.1870    9.1950   28.1160 H       1  UNL1        0.0000
     13  H         15.4850    8.7690   27.4560 H       1  UNL1        0.0000
     14  H         14.2630    5.2110   25.5620 H       1  UNL1        0.0000
     15  N         16.4310    6.6880   26.0650 N.pl3   1  UNL1        0.0000
     16  O         16.6370    5.7140   25.3270 O.2     1  UNL1        0.0000
     17  O         17.3090    7.4560   26.4800 O.2     1  UNL1        0.0000
     18  C         10.9600    2.8780   26.6040 C.ar    1  UNL1        0.0000
     19  C         11.0310    2.0750   25.4630 C.ar    1  UNL1        0.0000
     20  C         10.1020    1.0470   25.2590 C.ar    1  UNL1        0.0000
     21  C          9.1090    0.8060   26.2100 C.ar    1  UNL1        0.0000
     22  C          9.0660    1.5680   27.3780 C.ar    1  UNL1        0.0000
     23  C          9.9980    2.5890   27.5790 C.ar    1  UNL1        0.0000
     24  H         11.7720    2.2410   24.7650 H       1  UNL1        0.0000
     25  H          8.4080    0.0660   26.0500 H       1  UNL1        0.0000
     26  H          8.3460    1.3760   28.0920 H       1  UNL1        0.0000
     27  H          9.9760    3.1350   28.4550 H       1  UNL1        0.0000
     28  C         10.1640    0.2540   24.0650 C.1     1  UNL1        0.0000
     29  N         10.2240   -0.3760   23.0960 N.1     1  UNL1        0.0000
@<TRIPOS>BOND
     1     1     3    2
     2     1    11    1
     3     1     2   am
     4     2    18    1
     5     2     4    1
     6     5     6    1
     7     6    11   ar
     8     6     7   ar
     9     7     8   ar
    10     7    12    1
    11     8     9   ar
    12     8    13    1
    13     9    15    1
    14     9    10   ar
    15    10    14    1
    16    10    11   ar
    17    15    16    2
    18    15    17    2
    19    18    19   ar
    20    18    23   ar
    21    19    24    1
    22    19    20   ar
    23    20    28    1
    24    20    21   ar
    25    21    25    1
    26    21    22   ar
    27    22    23   ar
    28    22    26    1
    29    23    27    1
    30    28    29    3
