@<TRIPOS>MOLECULE
UNL
 33 35 0 0 0
SMALL
GASTEIGER

@<TRIPOS>ATOM
      1  C          9.7970    5.7090   27.3340 C.2     1  UNL1        0.0000
      2  N         10.0970    4.5550   28.0360 N.am    1  UNL1        0.0000
      3  O          8.9370    5.8120   26.4630 O.2     1  UNL1        0.0000
      4  H         10.6750    4.6620   28.8250 H       1  UNL1        0.0000
      5  C          9.6620    3.2280   27.7440 C.ar    1  UNL1        0.0000
      6  C          8.7260    2.5840   28.5510 C.ar    1  UNL1        0.0000
      7  C          8.2420    1.3530   28.1590 C.ar    1  UNL1        0.0000
      8  N          8.6110    0.7290   27.0250 N.ar    1  UNL1        0.0000
      9  C          9.5240    1.3250   26.2490 C.ar    1  UNL1        0.0000
     10  C         10.1180    2.5720   26.5610 C.ar    1  UNL1        0.0000
     11  C         11.1190    3.0620   25.6800 C.ar    1  UNL1        0.0000
     12  C         11.4760    2.3730   24.5180 C.ar    1  UNL1        0.0000
     13  C         10.8450    1.1800   24.2090 C.ar    1  UNL1        0.0000
     14  C          9.8870    0.6660   25.0810 C.ar    1  UNL1        0.0000
     15  H          8.4000    3.0210   29.4270 H       1  UNL1        0.0000
     16  H          7.5570    0.8830   28.7710 H       1  UNL1        0.0000
     17  H         11.5960    3.9490   25.9040 H       1  UNL1        0.0000
     18  H         12.2050    2.7510   23.8940 H       1  UNL1        0.0000
     19  H         11.0820    0.6740   23.3410 H       1  UNL1        0.0000
     20  H          9.4310   -0.2310   24.8520 H       1  UNL1        0.0000
     21 CL         12.9240    5.8690   26.4840 Cl      1  UNL1        0.0000
     22  C         11.9740    7.0920   27.2490 C.ar    1  UNL1        0.0000
     23  C         12.6330    8.3000   27.5300 C.ar    1  UNL1        0.0000
     24  C         11.9660    9.3450   28.1730 C.ar    1  UNL1        0.0000
     25  C         10.6320    9.1770   28.5520 C.ar    1  UNL1        0.0000
     26  C          9.9690    7.9720   28.2830 C.ar    1  UNL1        0.0000
     27  C         10.6310    6.9200   27.6100 C.ar    1  UNL1        0.0000
     28  H         13.6220    8.4170   27.2570 H       1  UNL1        0.0000
     29  H         12.4550   10.2340   28.3690 H       1  UNL1        0.0000
     30  H          8.9870    7.8520   28.5780 H       1  UNL1        0.0000
     31  N          9.9180   10.2760   29.2160 N.pl3   1  UNL1        0.0000
     32  O          9.5270   11.2130   28.5070 O.2     1  UNL1        0.0000
     33  O          9.7410   10.1940   30.4380 O.2     1  UNL1        0.0000
@<TRIPOS>BOND
     1     1     3    2
     2     1    27    1
     3     1     2   am
     4     2     5    1
     5     2     4    1
     6     5    10   ar
     7     5     6   ar
     8     6     7   ar
     9     6    15    1
    10     7     8   ar
    11     7    16    1
    12     8     9   ar
    13     9    14   ar
    14     9    10   ar
    15    10    11   ar
    16    11    12   ar
    17    11    17    1
    18    12    18    1
    19    12    13   ar
    20    13    19    1
    21    13    14   ar
    22    14    20    1
    23    21    22    1
    24    22    23   ar
    25    22    27   ar
    26    23    28    1
    27    23    24   ar
    28    24    29    1
    29    24    25   ar
    30    25    26   ar
    31    25    31    1
    32    26    27   ar
    33    26    30    1
    34    31    32    2
    35    31    33    2
