@<TRIPOS>MOLECULE
UNL
 28 29 0 0 0
SMALL
GASTEIGER

@<TRIPOS>ATOM
      1  C         10.9310    5.7830   26.1080 C.2     1  UNL1        0.0000
      2  N         11.0760    4.5670   26.7370 N.am    1  UNL1        0.0000
      3  C         10.8930    3.3480   26.0720 C.ar    1  UNL1        0.0000
      4  N         10.1070    2.4880   26.7640 N.ar    1  UNL1        0.0000
      5  C          9.7850    1.3210   26.1650 C.ar    1  UNL1        0.0000
      6  C         10.2530    0.9420   24.9210 C.ar    1  UNL1        0.0000
      7  C         11.1280    1.7990   24.2620 C.ar    1  UNL1        0.0000
      8  C         11.4680    3.0260   24.8410 C.ar    1  UNL1        0.0000
      9  O         10.6400    5.9100   24.9220 O.2     1  UNL1        0.0000
     10  H         11.3190    4.5540   27.6910 H       1  UNL1        0.0000
     11  H          9.1510    0.6760   26.6650 H       1  UNL1        0.0000
     12  H          9.9620    0.0490   24.4940 H       1  UNL1        0.0000
     13  H         11.5250    1.5310   23.3480 H       1  UNL1        0.0000
     14 CL         13.9050    6.7770   26.9740 Cl      1  UNL1        0.0000
     15  C         12.3920    7.5480   27.2940 C.ar    1  UNL1        0.0000
     16  C         12.4550    8.7570   28.0040 C.ar    1  UNL1        0.0000
     17  C         11.2890    9.4410   28.3540 C.ar    1  UNL1        0.0000
     18  C         10.0460    8.9020   28.0080 C.ar    1  UNL1        0.0000
     19  C          9.9710    7.6940   27.3070 C.ar    1  UNL1        0.0000
     20  C         11.1460    7.0160   26.9210 C.ar    1  UNL1        0.0000
     21  H         13.3730    9.1440   28.2700 H       1  UNL1        0.0000
     22  H         11.3450   10.3370   28.8630 H       1  UNL1        0.0000
     23  H          9.0480    7.2950   27.0700 H       1  UNL1        0.0000
     24  N          8.8160    9.6210   28.3640 N.pl3   1  UNL1        0.0000
     25  O          7.9860    9.0210   29.0640 O.2     1  UNL1        0.0000
     26  O          8.6830   10.7780   27.9480 O.2     1  UNL1        0.0000
     27  C         12.4860    3.8270   24.2240 C.1     1  UNL1        0.0000
     28  N         13.3400    4.4860   23.7950 N.1     1  UNL1        0.0000
@<TRIPOS>BOND
     1     1     9    2
     2     1     2   am
     3     1    20    1
     4     2     3    1
     5     2    10    1
     6     3     8   ar
     7     3     4   ar
     8     4     5   ar
     9     5     6   ar
    10     5    11    1
    11     6     7   ar
    12     6    12    1
    13     7    13    1
    14     7     8   ar
    15     8    27    1
    16    14    15    1
    17    15    20   ar
    18    15    16   ar
    19    16    21    1
    20    16    17   ar
    21    17    18   ar
    22    17    22    1
    23    18    19   ar
    24    18    24    1
    25    19    20   ar
    26    19    23    1
    27    24    26    2
    28    24    25    2
    29    27    28    3
