@<TRIPOS>MOLECULE
UNL
 35 36 0 0 0
SMALL
GASTEIGER

@<TRIPOS>ATOM
      1  C         10.4830    3.7860   25.0700 C.ar    1  UNL1        0.0000
      2  C          9.2310    3.3960   24.6040 C.ar    1  UNL1        0.0000
      3  C          9.0030    2.0840   24.1670 C.ar    1  UNL1        0.0000
      4  C         10.0250    1.1370   24.1900 C.ar    1  UNL1        0.0000
      5  C         11.3060    1.5510   24.5730 C.ar    1  UNL1        0.0000
      6  C         11.5340    2.8650   25.0060 C.ar    1  UNL1        0.0000
      7  H          8.4590    4.0810   24.5800 H       1  UNL1        0.0000
      8  H          8.0680    1.8150   23.8230 H       1  UNL1        0.0000
      9  H         12.0910    0.8820   24.5360 H       1  UNL1        0.0000
     10  H         12.4850    3.1560   25.2790 H       1  UNL1        0.0000
     11  C         10.6550    5.3870   26.9840 C.2     1  UNL1        0.0000
     12  N         10.7510    5.0490   25.6460 N.am    1  UNL1        0.0000
     13  O         10.2290    4.6710   27.8850 O.2     1  UNL1        0.0000
     14  H         11.0360    5.7620   25.0300 H       1  UNL1        0.0000
     15 CL         13.7460    6.3000   26.8150 Cl      1  UNL1        0.0000
     16  C         12.3920    7.2540   27.3100 C.ar    1  UNL1        0.0000
     17  C         12.6690    8.5740   27.6990 C.ar    1  UNL1        0.0000
     18  C         11.6500    9.4150   28.1510 C.ar    1  UNL1        0.0000
     19  C         10.3420    8.9270   28.2280 C.ar    1  UNL1        0.0000
     20  C         10.0550    7.6090   27.8500 C.ar    1  UNL1        0.0000
     21  C         11.0760    6.7670   27.3660 C.ar    1  UNL1        0.0000
     22  H         13.6380    8.9270   27.6520 H       1  UNL1        0.0000
     23  H         11.8590   10.3880   28.4250 H       1  UNL1        0.0000
     24  H          9.0890    7.2530   27.9260 H       1  UNL1        0.0000
     25  N          9.2630    9.8070   28.6970 N.pl3   1  UNL1        0.0000
     26  O          9.3230   11.0030   28.3810 O.2     1  UNL1        0.0000
     27  O          8.3530    9.2990   29.3660 O.2     1  UNL1        0.0000
     28  N          9.8360   -0.2310   23.8980 N.am    1  UNL1        0.0000
     29  C          9.9320   -0.8380   22.6560 C.2     1  UNL1        0.0000
     30  O         10.2800   -0.3170   21.6030 O.2     1  UNL1        0.0000
     31  H          9.6140   -0.8170   24.6570 H       1  UNL1        0.0000
     32  C          9.4920   -2.2820   22.6740 C.3     1  UNL1        0.0000
     33  H         10.3100   -2.9010   22.9780 H       1  UNL1        0.0000
     34  H          9.1710   -2.5690   21.6950 H       1  UNL1        0.0000
     35  H          8.6820   -2.3990   23.3630 H       1  UNL1        0.0000
@<TRIPOS>BOND
     1     1     2   ar
     2     1     6   ar
     3     1    12    1
     4     2     3   ar
     5     2     7    1
     6     3     8    1
     7     3     4   ar
     8     4    28    1
     9     4     5   ar
    10     5     9    1
    11     5     6   ar
    12     6    10    1
    13    11    12   am
    14    11    21    1
    15    11    13    2
    16    12    14    1
    17    15    16    1
    18    16    21   ar
    19    16    17   ar
    20    17    22    1
    21    17    18   ar
    22    18    19   ar
    23    18    23    1
    24    19    20   ar
    25    19    25    1
    26    20    21   ar
    27    20    24    1
    28    25    26    2
    29    25    27    2
    30    28    29   am
    31    28    31    1
    32    29    30    2
    33    29    32    1
    34    32    34    1
    35    32    33    1
    36    32    35    1
