@<TRIPOS>MOLECULE
UNL
 29 30 0 0 0
SMALL
GASTEIGER

@<TRIPOS>ATOM
      1  C         11.6790    5.3080   25.7340 C.2     1  UNL1        0.0000
      2  N         11.5500    4.1110   26.4110 N.am    1  UNL1        0.0000
      3  O         11.3740    5.5020   24.5620 O.2     1  UNL1        0.0000
      4  H         11.8520    4.0960   27.3490 H       1  UNL1        0.0000
      5 CL         14.8670    5.9580   25.6990 Cl      1  UNL1        0.0000
      6  C         13.6140    6.8350   26.5040 C.ar    1  UNL1        0.0000
      7  C         14.0230    7.9640   27.2350 C.ar    1  UNL1        0.0000
      8  C         13.1000    8.7230   27.9550 C.ar    1  UNL1        0.0000
      9  C         11.7540    8.3420   27.9600 C.ar    1  UNL1        0.0000
     10  C         11.3360    7.2180   27.2400 C.ar    1  UNL1        0.0000
     11  C         12.2600    6.4630   26.4860 C.ar    1  UNL1        0.0000
     12  H         15.0180    8.2350   27.2380 H       1  UNL1        0.0000
     13  H         13.4060    9.5570   28.4790 H       1  UNL1        0.0000
     14  H         10.3430    6.9390   27.2590 H       1  UNL1        0.0000
     15  N         10.7730    9.1350   28.7140 N.pl3   1  UNL1        0.0000
     16  O         10.1490   10.0080   28.0960 O.2     1  UNL1        0.0000
     17  O         10.6250    8.8770   29.9140 O.2     1  UNL1        0.0000
     18  C         11.0270    2.9070   25.8920 C.ar    1  UNL1        0.0000
     19  C         11.4850    2.3120   24.7130 C.ar    1  UNL1        0.0000
     20  C         10.8600    1.1710   24.2040 C.ar    1  UNL1        0.0000
     21  C          9.7780    0.6240   24.8820 C.ar    1  UNL1        0.0000
     22  C          9.3520    1.1630   26.0890 C.ar    1  UNL1        0.0000
     23  C          9.9840    2.2990   26.6000 C.ar    1  UNL1        0.0000
     24  H         12.2900    2.7210   24.2130 H       1  UNL1        0.0000
     25  H         11.2000    0.7370   23.3310 H       1  UNL1        0.0000
     26  H          8.5730    0.7250   26.6050 H       1  UNL1        0.0000
     27  H          9.6790    2.6930   27.5040 H       1  UNL1        0.0000
     28  O          9.0960   -0.4430   24.3800 O.3     1  UNL1        0.0000
     29  H          8.2190   -0.3330   24.0690 H       1  UNL1        0.0000
@<TRIPOS>BOND
     1     1     3    2
     2     1     2   am
     3     1    11    1
     4     2    18    1
     5     2     4    1
     6     5     6    1
     7     6    11   ar
     8     6     7   ar
     9     7    12    1
    10     7     8   ar
    11     8     9   ar
    12     8    13    1
    13     9    10   ar
    14     9    15    1
    15    10    11   ar
    16    10    14    1
    17    15    16    2
    18    15    17    2
    19    18    19   ar
    20    18    23   ar
    21    19    20   ar
    22    19    24    1
    23    20    25    1
    24    20    21   ar
    25    21    28    1
    26    21    22   ar
    27    22    23   ar
    28    22    26    1
    29    23    27    1
    30    28    29    1
