@<TRIPOS>MOLECULE
UNL
 31 32 0 0 0
SMALL
GASTEIGER

@<TRIPOS>ATOM
      1  C         11.7060    5.3890   25.9910 C.2     1  UNL1        0.0000
      2  N         11.6510    4.2380   26.7440 N.am    1  UNL1        0.0000
      3  O         10.9780    5.6890   25.0500 O.2     1  UNL1        0.0000
      4  H         12.2280    4.2050   27.5410 H       1  UNL1        0.0000
      5 CL         10.8800    7.8430   27.8280 Cl      1  UNL1        0.0000
      6  C         12.4530    7.4870   27.2160 C.ar    1  UNL1        0.0000
      7  C         13.4990    8.3220   27.6310 C.ar    1  UNL1        0.0000
      8  C         14.8150    8.0630   27.2370 C.ar    1  UNL1        0.0000
      9  C         15.0840    6.9630   26.4140 C.ar    1  UNL1        0.0000
     10  C         14.0470    6.1280   25.9850 C.ar    1  UNL1        0.0000
     11  C         12.7250    6.3910   26.3850 C.ar    1  UNL1        0.0000
     12  H         13.2960    9.1350   28.2340 H       1  UNL1        0.0000
     13  H         15.5820    8.6770   27.5510 H       1  UNL1        0.0000
     14  H         14.2520    5.3200   25.3760 H       1  UNL1        0.0000
     15  N         16.4670    6.6720   26.0160 N.pl3   1  UNL1        0.0000
     16  O         17.3530    7.4320   26.4310 O.2     1  UNL1        0.0000
     17  O         16.6600    5.6910   25.2860 O.2     1  UNL1        0.0000
     18  C         10.8530    3.0940   26.4920 C.ar    1  UNL1        0.0000
     19  C         11.0710    2.2210   25.4280 C.ar    1  UNL1        0.0000
     20  C         10.2310    1.1290   25.2750 C.ar    1  UNL1        0.0000
     21  N          9.2000    0.8470   26.1010 N.ar    1  UNL1        0.0000
     22  C          8.9990    1.7060   27.1250 C.ar    1  UNL1        0.0000
     23  C          9.7970    2.8160   27.3690 C.ar    1  UNL1        0.0000
     24  H         11.8460    2.3850   24.7650 H       1  UNL1        0.0000
     25  H         10.4030    0.4910   24.4830 H       1  UNL1        0.0000
     26  H          8.2070    1.5280   27.7620 H       1  UNL1        0.0000
     27  O          9.4860    3.6620   28.3990 O.3     1  UNL1        0.0000
     28  C          8.3280    3.2240   29.1120 C.3     1  UNL1        0.0000
     29  H          7.8940    4.0530   29.6300 H       1  UNL1        0.0000
     30  H          8.6060    2.4690   29.8160 H       1  UNL1        0.0000
     31  H          7.6150    2.8220   28.4210 H       1  UNL1        0.0000
@<TRIPOS>BOND
     1     1     3    2
     2     1    11    1
     3     1     2   am
     4     2    18    1
     5     2     4    1
     6     5     6    1
     7     6    11   ar
     8     6     7   ar
     9     7     8   ar
    10     7    12    1
    11     8     9   ar
    12     8    13    1
    13     9    10   ar
    14     9    15    1
    15    10    14    1
    16    10    11   ar
    17    15    17    2
    18    15    16    2
    19    18    19   ar
    20    18    23   ar
    21    19    24    1
    22    19    20   ar
    23    20    25    1
    24    20    21   ar
    25    21    22   ar
    26    22    23   ar
    27    22    26    1
    28    23    27    1
    29    27    28    1
    30    28    31    1
    31    28    29    1
    32    28    30    1
