@<TRIPOS>MOLECULE
UNL
 46 49 0 0 0
SMALL
GASTEIGER

@<TRIPOS>ATOM
      1  C         10.6480    3.5680   26.4900 C.ar    1  UNL1        0.0000
      2  C         11.0600    3.2450   25.1880 C.ar    1  UNL1        0.0000
      3  C         10.7510    1.9810   24.6690 C.ar    1  UNL1        0.0000
      4  N         11.0660    1.4110   23.4660 N.ar    1  UNL1        0.0000
      5  C         10.5520    0.1970   23.5450 C.ar    1  UNL1        0.0000
      6  O          9.8910   -0.0640   24.7240 O.2     1  UNL1        0.0000
      7  C         10.0310    1.0900   25.4430 C.ar    1  UNL1        0.0000
      8  C          9.5710    1.3630   26.7240 C.ar    1  UNL1        0.0000
      9  C          9.9090    2.6290   27.2380 C.ar    1  UNL1        0.0000
     10  H         11.5850    3.9300   24.6210 H       1  UNL1        0.0000
     11  H          9.0180    0.6810   27.2670 H       1  UNL1        0.0000
     12  H          9.6050    2.8800   28.1920 H       1  UNL1        0.0000
     13  C         10.6230   -0.8780   22.5580 C.ar    1  UNL1        0.0000
     14  C         11.4570   -1.9800   22.8010 C.ar    1  UNL1        0.0000
     15  C         11.5400   -3.0370   21.8890 C.ar    1  UNL1        0.0000
     16  C         10.7910   -3.0130   20.7080 C.ar    1  UNL1        0.0000
     17  C          9.9490   -1.9200   20.4640 C.ar    1  UNL1        0.0000
     18  C          9.8690   -0.8620   21.3780 C.ar    1  UNL1        0.0000
     19  H         12.0180   -2.0120   23.6670 H       1  UNL1        0.0000
     20  H         12.1590   -3.8400   22.0880 H       1  UNL1        0.0000
     21  H          9.3830   -1.8940   19.6020 H       1  UNL1        0.0000
     22  H          9.2480   -0.0620   21.1800 H       1  UNL1        0.0000
     23  C         10.8760   -4.1500   19.7220 C.3     1  UNL1        0.0000
     24  H         10.2430   -3.9300   18.8880 H       1  UNL1        0.0000
     25  H         10.5660   -5.0420   20.2260 H       1  UNL1        0.0000
     26  C         12.2920   -4.3730   19.2140 C.3     1  UNL1        0.0000
     27  H         12.9310   -3.6000   19.5890 H       1  UNL1        0.0000
     28  H         12.2950   -4.3510   18.1450 H       1  UNL1        0.0000
     29  H         12.6470   -5.3240   19.5520 H       1  UNL1        0.0000
     30  C         10.5330    6.0460   26.7850 C.2     1  UNL1        0.0000
     31  N         11.0010    4.7860   27.1220 N.am    1  UNL1        0.0000
     32  O          9.5940    6.2770   26.0270 O.2     1  UNL1        0.0000
     33  H         11.6390    4.7320   27.8700 H       1  UNL1        0.0000
     34 CL         13.7520    6.3670   26.5460 Cl      1  UNL1        0.0000
     35  C         12.6300    7.4720   27.2590 C.ar    1  UNL1        0.0000
     36  C         13.1720    8.6510   27.7950 C.ar    1  UNL1        0.0000
     37  C         12.3530    9.6040   28.4080 C.ar    1  UNL1        0.0000
     38  C         10.9790    9.3680   28.5020 C.ar    1  UNL1        0.0000
     39  C         10.4310    8.1860   27.9880 C.ar    1  UNL1        0.0000
     40  C         11.2510    7.2330   27.3410 C.ar    1  UNL1        0.0000
     41  H         14.1890    8.8170   27.7350 H       1  UNL1        0.0000
     42  H         12.7600   10.4740   28.7870 H       1  UNL1        0.0000
     43  H          9.4190    8.0100   28.0820 H       1  UNL1        0.0000
     44  N         10.1060   10.3770   29.1160 N.pl3   1  UNL1        0.0000
     45  O         10.2940   11.5630   28.8050 O.2     1  UNL1        0.0000
     46  O          9.2290    9.9850   29.8970 O.2     1  UNL1        0.0000
@<TRIPOS>BOND
     1     1     2   ar
     2     1    31    1
     3     1     9   ar
     4     2    10    1
     5     2     3   ar
     6     3     4   ar
     7     3     7   ar
     8     4     5   ar
     9     5    13    1
    10     5     6   ar
    11     6     7   ar
    12     7     8   ar
    13     8     9   ar
    14     8    11    1
    15     9    12    1
    16    13    18   ar
    17    13    14   ar
    18    14    15   ar
    19    14    19    1
    20    15    16   ar
    21    15    20    1
    22    16    23    1
    23    16    17   ar
    24    17    21    1
    25    17    18   ar
    26    18    22    1
    27    23    24    1
    28    23    26    1
    29    23    25    1
    30    26    28    1
    31    26    29    1
    32    26    27    1
    33    30    32    2
    34    30    31   am
    35    30    40    1
    36    31    33    1
    37    34    35    1
    38    35    40   ar
    39    35    36   ar
    40    36    41    1
    41    36    37   ar
    42    37    38   ar
    43    37    42    1
    44    38    39   ar
    45    38    44    1
    46    39    40   ar
    47    39    43    1
    48    44    45    2
    49    44    46    2
