@<TRIPOS>MOLECULE
UNL
 46 49 0 0 0
SMALL
GASTEIGER

@<TRIPOS>ATOM
      1  C         10.5380    3.6370   26.4870 C.ar    1  UNL1        0.0000
      2  C         10.9530    3.3120   25.1860 C.ar    1  UNL1        0.0000
      3  C         10.6780    2.0330   24.6890 C.ar    1  UNL1        0.0000
      4  N         11.0040    1.4540   23.4920 N.ar    1  UNL1        0.0000
      5  C         10.5250    0.2280   23.5910 C.ar    1  UNL1        0.0000
      6  O          9.8800   -0.0390   24.7760 O.2     1  UNL1        0.0000
      7  C          9.9890    1.1300   25.4790 C.ar    1  UNL1        0.0000
      8  C          9.5280    1.4060   26.7590 C.ar    1  UNL1        0.0000
      9  C          9.8310    2.6880   27.2510 C.ar    1  UNL1        0.0000
     10  H         11.4510    4.0050   24.6060 H       1  UNL1        0.0000
     11  H          8.9970    0.7150   27.3120 H       1  UNL1        0.0000
     12  H          9.5260    2.9420   28.2050 H       1  UNL1        0.0000
     13  C         10.6190   -0.8530   22.6130 C.ar    1  UNL1        0.0000
     14  C          9.8480   -0.7830   21.4420 C.ar    1  UNL1        0.0000
     15  C          9.9140   -1.7860   20.4730 C.ar    1  UNL1        0.0000
     16  C         10.7550   -2.8900   20.6580 C.ar    1  UNL1        0.0000
     17  C         11.5350   -2.9600   21.8180 C.ar    1  UNL1        0.0000
     18  C         11.4660   -1.9540   22.7880 C.ar    1  UNL1        0.0000
     19  H          9.2220    0.0250   21.2930 H       1  UNL1        0.0000
     20  H          9.3420   -1.7140   19.6170 H       1  UNL1        0.0000
     21  H         12.1680   -3.7640   21.9600 H       1  UNL1        0.0000
     22  H         12.0420   -2.0250   23.6410 H       1  UNL1        0.0000
     23  C         10.8330   -3.9730   19.6110 C.3     1  UNL1        0.0000
     24  H         10.9050   -3.5140   18.6470 H       1  UNL1        0.0000
     25  H          9.9500   -4.5710   19.6940 H       1  UNL1        0.0000
     26  C         12.0340   -4.8840   19.8100 C.3     1  UNL1        0.0000
     27  H         12.9250   -4.2930   19.8590 H       1  UNL1        0.0000
     28  H         12.1030   -5.5670   18.9910 H       1  UNL1        0.0000
     29  H         11.9190   -5.4310   20.7230 H       1  UNL1        0.0000
     30  C         10.4950    6.1290   26.6520 C.2     1  UNL1        0.0000
     31  N         10.8580    4.8720   27.0990 N.am    1  UNL1        0.0000
     32  O          9.6810    6.3590   25.7620 O.2     1  UNL1        0.0000
     33  H         11.3920    4.8320   27.9260 H       1  UNL1        0.0000
     34 BR         13.8670    6.3860   26.5110 Br      1  UNL1        0.0000
     35  C         12.5670    7.5690   27.2330 C.ar    1  UNL1        0.0000
     36  C         13.0710    8.7480   27.8080 C.ar    1  UNL1        0.0000
     37  C         12.2170    9.6730   28.4150 C.ar    1  UNL1        0.0000
     38  C         10.8460    9.4120   28.4610 C.ar    1  UNL1        0.0000
     39  C         10.3340    8.2370   27.8950 C.ar    1  UNL1        0.0000
     40  C         11.1880    7.3090   27.2570 C.ar    1  UNL1        0.0000
     41  H         14.0860    8.9340   27.7830 H       1  UNL1        0.0000
     42  H         12.5960   10.5410   28.8250 H       1  UNL1        0.0000
     43  H          9.3200    8.0470   27.9450 H       1  UNL1        0.0000
     44  N          9.9390   10.3820   29.0880 N.pl3   1  UNL1        0.0000
     45  O         10.0760   11.5750   28.7820 O.2     1  UNL1        0.0000
     46  O          9.0860    9.9510   29.8750 O.2     1  UNL1        0.0000
@<TRIPOS>BOND
     1     1     2   ar
     2     1    31    1
     3     1     9   ar
     4     2    10    1
     5     2     3   ar
     6     3     4   ar
     7     3     7   ar
     8     4     5   ar
     9     5    13    1
    10     5     6   ar
    11     6     7   ar
    12     7     8   ar
    13     8     9   ar
    14     8    11    1
    15     9    12    1
    16    13    14   ar
    17    13    18   ar
    18    14    15   ar
    19    14    19    1
    20    15    20    1
    21    15    16   ar
    22    16    23    1
    23    16    17   ar
    24    17    21    1
    25    17    18   ar
    26    18    22    1
    27    23    24    1
    28    23    25    1
    29    23    26    1
    30    26    28    1
    31    26    27    1
    32    26    29    1
    33    30    32    2
    34    30    31   am
    35    30    40    1
    36    31    33    1
    37    34    35    1
    38    35    40   ar
    39    35    36   ar
    40    36    41    1
    41    36    37   ar
    42    37    38   ar
    43    37    42    1
    44    38    39   ar
    45    38    44    1
    46    39    40   ar
    47    39    43    1
    48    44    45    2
    49    44    46    2
