@<TRIPOS>MOLECULE
UNL
 43 46 0 0 0
SMALL
GASTEIGER

@<TRIPOS>ATOM
      1  C         11.1730    4.0260   26.5120 C.ar    1  UNL1        0.0000
      2  C         11.4930    3.3640   25.3170 C.ar    1  UNL1        0.0000
      3  C         10.8800    2.1360   25.0410 C.ar    1  UNL1        0.0000
      4  N         11.0370    1.2790   23.9850 N.ar    1  UNL1        0.0000
      5  C         10.2310    0.2730   24.2720 C.ar    1  UNL1        0.0000
      6  O          9.5370    0.4160   25.4500 O.2     1  UNL1        0.0000
      7  C          9.9660    1.6170   25.9380 C.ar    1  UNL1        0.0000
      8  C          9.5940    2.2380   27.1230 C.ar    1  UNL1        0.0000
      9  C         10.2340    3.4600   27.3950 C.ar    1  UNL1        0.0000
     10  H         12.1670    3.7760   24.6540 H       1  UNL1        0.0000
     11  H          8.8950    1.8300   27.7620 H       1  UNL1        0.0000
     12  H         10.0070    3.9590   28.2690 H       1  UNL1        0.0000
     13  C         10.0130   -0.9490   23.5030 C.ar    1  UNL1        0.0000
     14  C         11.0810   -1.4960   22.7760 C.ar    1  UNL1        0.0000
     15  C         10.9210   -2.6670   22.0300 C.ar    1  UNL1        0.0000
     16  C          9.6840   -3.3160   21.9930 C.ar    1  UNL1        0.0000
     17  C          8.6150   -2.7830   22.7250 C.ar    1  UNL1        0.0000
     18  C          8.7780   -1.6090   23.4710 C.ar    1  UNL1        0.0000
     19  H         12.0000   -1.0270   22.7930 H       1  UNL1        0.0000
     20  H         11.7220   -3.0540   21.5050 H       1  UNL1        0.0000
     21  H          7.7010   -3.2600   22.7150 H       1  UNL1        0.0000
     22  H          7.9800   -1.2260   24.0020 H       1  UNL1        0.0000
     23  C          9.5130   -4.5830   21.1940 C.3     1  UNL1        0.0000
     24  H          9.3960   -4.3280   20.1620 H       1  UNL1        0.0000
     25  H          8.6500   -5.0950   21.5660 H       1  UNL1        0.0000
     26  C         10.7100   -5.5110   21.3370 C.3     1  UNL1        0.0000
     27  H         11.5400   -4.9640   21.7300 H       1  UNL1        0.0000
     28  H         10.9670   -5.9120   20.3780 H       1  UNL1        0.0000
     29  H         10.4620   -6.3120   22.0020 H       1  UNL1        0.0000
     30  C         12.5170    6.0920   26.1030 C.2     1  UNL1        0.0000
     31  N         11.8040    5.2270   26.9150 N.am    1  UNL1        0.0000
     32  O         12.5500    6.0510   24.8760 O.2     1  UNL1        0.0000
     33  H         11.7290    5.4700   27.8660 H       1  UNL1        0.0000
     34 CL         11.2490    8.5100   27.8790 Cl      1  UNL1        0.0000
     35  C         12.9080    8.1670   27.5620 C.ar    1  UNL1        0.0000
     36  N         13.7240    9.0610   28.1780 N.ar    1  UNL1        0.0000
     37  C         15.0520    8.9230   27.9750 C.ar    1  UNL1        0.0000
     38  C         15.6040    7.9370   27.1820 C.ar    1  UNL1        0.0000
     39  C         14.7430    7.0320   26.5690 C.ar    1  UNL1        0.0000
     40  C         13.3550    7.1260   26.7620 C.ar    1  UNL1        0.0000
     41  H         15.6870    9.5900   28.4390 H       1  UNL1        0.0000
     42  H         16.6270    7.8740   27.0480 H       1  UNL1        0.0000
     43  H         15.1270    6.2850   25.9670 H       1  UNL1        0.0000
@<TRIPOS>BOND
     1     1     2   ar
     2     1    31    1
     3     1     9   ar
     4     2    10    1
     5     2     3   ar
     6     3     4   ar
     7     3     7   ar
     8     4     5   ar
     9     5    13    1
    10     5     6   ar
    11     6     7   ar
    12     7     8   ar
    13     8     9   ar
    14     8    11    1
    15     9    12    1
    16    13    14   ar
    17    13    18   ar
    18    14    15   ar
    19    14    19    1
    20    15    20    1
    21    15    16   ar
    22    16    23    1
    23    16    17   ar
    24    17    21    1
    25    17    18   ar
    26    18    22    1
    27    23    24    1
    28    23    26    1
    29    23    25    1
    30    26    28    1
    31    26    27    1
    32    26    29    1
    33    30    32    2
    34    30    40    1
    35    30    31   am
    36    31    33    1
    37    34    35    1
    38    35    40   ar
    39    35    36   ar
    40    36    37   ar
    41    37    38   ar
    42    37    41    1
    43    38    39   ar
    44    38    42    1
    45    39    43    1
    46    39    40   ar
