@<TRIPOS>MOLECULE
UNL
 45 48 0 0 0
SMALL
GASTEIGER

@<TRIPOS>ATOM
      1  C         10.9740    4.2820   24.7800 C.ar    1  UNL1        0.0000
      2  C         11.2340    2.9700   25.2240 C.ar    1  UNL1        0.0000
      3  C         10.8110    1.8940   24.4210 C.ar    1  UNL1        0.0000
      4  N         10.9610    0.5290   24.5450 N.ar    1  UNL1        0.0000
      5  C         10.4470    0.0480   23.4230 C.ar    1  UNL1        0.0000
      6  O          9.8940    1.0030   22.6060 O.2     1  UNL1        0.0000
      7  C         10.1420    2.1740   23.2440 C.ar    1  UNL1        0.0000
      8  C          9.8150    3.4390   22.7880 C.ar    1  UNL1        0.0000
      9  C         10.2460    4.4960   23.5940 C.ar    1  UNL1        0.0000
     10  H         11.7230    2.8020   26.1180 H       1  UNL1        0.0000
     11  H          9.2900    3.5920   21.9130 H       1  UNL1        0.0000
     12  H         10.0230    5.4630   23.3120 H       1  UNL1        0.0000
     13  C         10.4450   -1.3060   22.8720 C.ar    1  UNL1        0.0000
     14  C          9.2670   -2.0430   22.7340 C.ar    1  UNL1        0.0000
     15  C          9.3060   -3.3710   22.2830 C.ar    1  UNL1        0.0000
     16  C         10.5220   -3.9980   21.9650 C.ar    1  UNL1        0.0000
     17  C         11.6970   -3.2520   22.0850 C.ar    1  UNL1        0.0000
     18  C         11.6550   -1.9250   22.5230 C.ar    1  UNL1        0.0000
     19  H          8.3610   -1.6060   22.9660 H       1  UNL1        0.0000
     20  H          8.4230   -3.8980   22.1820 H       1  UNL1        0.0000
     21  H         12.6040   -3.6850   21.8480 H       1  UNL1        0.0000
     22  H         12.5340   -1.3890   22.5910 H       1  UNL1        0.0000
     23  C         10.5360   -5.4740   21.6340 C.3     1  UNL1        0.0000
     24  H         10.3530   -5.5730   20.5830 H       1  UNL1        0.0000
     25  H          9.7840   -5.9120   22.2570 H       1  UNL1        0.0000
     26  C         11.8200   -6.2310   21.9550 C.3     1  UNL1        0.0000
     27  H         11.5910   -7.2590   22.1430 H       1  UNL1        0.0000
     28  H         12.2800   -5.8030   22.8220 H       1  UNL1        0.0000
     29  H         12.4920   -6.1610   21.1240 H       1  UNL1        0.0000
     30  C         11.1560    5.8680   26.7140 C.2     1  UNL1        0.0000
     31  N         11.4290    5.4510   25.4310 N.am    1  UNL1        0.0000
     32  O         10.4160    5.2800   27.4950 O.2     1  UNL1        0.0000
     33  H         12.0140    6.0410   24.9010 H       1  UNL1        0.0000
     34 CL         14.4450    6.2230   26.7280 Cl      1  UNL1        0.0000
     35  C         13.2370    7.3550   27.2350 C.ar    1  UNL1        0.0000
     36  C         13.7350    8.5840   27.7000 C.ar    1  UNL1        0.0000
     37  C         12.8700    9.5850   28.1450 C.ar    1  UNL1        0.0000
     38  C         11.4930    9.3590   28.1410 C.ar    1  UNL1        0.0000
     39  C         10.9960    8.1360   27.6790 C.ar    1  UNL1        0.0000
     40  C         11.8510    7.1130   27.2070 C.ar    1  UNL1        0.0000
     41  H         14.7540    8.7500   27.7130 H       1  UNL1        0.0000
     42  H         13.2470   10.4860   28.4750 H       1  UNL1        0.0000
     43  H          9.9770    7.9750   27.6830 H       1  UNL1        0.0000
     44  C         10.5990   10.3780   28.6060 C.1     1  UNL1        0.0000
     45  N          9.8780   11.2060   28.9720 N.1     1  UNL1        0.0000
@<TRIPOS>BOND
     1     1     9   ar
     2     1     2   ar
     3     1    31    1
     4     2     3   ar
     5     2    10    1
     6     3     7   ar
     7     3     4   ar
     8     4     5   ar
     9     5     6   ar
    10     5    13    1
    11     6     7   ar
    12     7     8   ar
    13     8    11    1
    14     8     9   ar
    15     9    12    1
    16    13    18   ar
    17    13    14   ar
    18    14    15   ar
    19    14    19    1
    20    15    16   ar
    21    15    20    1
    22    16    23    1
    23    16    17   ar
    24    17    21    1
    25    17    18   ar
    26    18    22    1
    27    23    24    1
    28    23    26    1
    29    23    25    1
    30    26    29    1
    31    26    27    1
    32    26    28    1
    33    30    31   am
    34    30    40    1
    35    30    32    2
    36    31    33    1
    37    34    35    1
    38    35    40   ar
    39    35    36   ar
    40    36    41    1
    41    36    37   ar
    42    37    38   ar
    43    37    42    1
    44    38    39   ar
    45    38    44    1
    46    39    40   ar
    47    39    43    1
    48    44    45    3
