@<TRIPOS>MOLECULE
UNL
 51 54 0 0 0
SMALL
GASTEIGER

@<TRIPOS>ATOM
      1  C         10.5440    3.1910   25.6610 C.ar    1  UNL1        0.0000
      2  C         11.0550    2.5660   24.5140 C.ar    1  UNL1        0.0000
      3  C         10.5790    1.2920   24.1730 C.ar    1  UNL1        0.0000
      4  N         10.9570    0.4350   23.1740 N.ar    1  UNL1        0.0000
      5  C         10.2390   -0.6510   23.3980 C.ar    1  UNL1        0.0000
      6  O          9.3540   -0.5430   24.4440 O.2     1  UNL1        0.0000
      7  C          9.5950    0.7050   24.9480 C.ar    1  UNL1        0.0000
      8  C          9.0150    1.2990   26.0590 C.ar    1  UNL1        0.0000
      9  C          9.5300    2.5600   26.4070 C.ar    1  UNL1        0.0000
     10  H         11.7670    3.0340   23.9310 H       1  UNL1        0.0000
     11  H          8.2570    0.8470   26.5940 H       1  UNL1        0.0000
     12  H          9.1510    3.0400   27.2390 H       1  UNL1        0.0000
     13  C         10.3580   -1.9560   22.7480 C.ar    1  UNL1        0.0000
     14  C         11.6300   -2.4130   22.3740 C.ar    1  UNL1        0.0000
     15  C         11.8100   -3.6910   21.8370 C.ar    1  UNL1        0.0000
     16  C         10.7140   -4.5390   21.6540 C.ar    1  UNL1        0.0000
     17  C          9.4370   -4.0830   22.0050 C.ar    1  UNL1        0.0000
     18  C          9.2600   -2.8020   22.5430 C.ar    1  UNL1        0.0000
     19  H         12.4480   -1.7950   22.4970 H       1  UNL1        0.0000
     20  H         12.7560   -4.0080   21.5750 H       1  UNL1        0.0000
     21  H          8.6190   -4.6960   21.8650 H       1  UNL1        0.0000
     22  H          8.3120   -2.4790   22.7920 H       1  UNL1        0.0000
     23  C         10.9180   -5.9390   21.1320 C.3     1  UNL1        0.0000
     24  H         10.5060   -6.0040   20.1470 H       1  UNL1        0.0000
     25  H         10.4300   -6.6180   21.7990 H       1  UNL1        0.0000
     26  C         12.3930   -6.3120   21.0750 C.3     1  UNL1        0.0000
     27  H         12.6730   -6.5040   20.0600 H       1  UNL1        0.0000
     28  H         12.5620   -7.1870   21.6650 H       1  UNL1        0.0000
     29  H         12.9810   -5.5040   21.4590 H       1  UNL1        0.0000
     30  C         11.9040    5.2940   25.5210 C.2     1  UNL1        0.0000
     31  N         11.0460    4.4150   26.1590 N.am    1  UNL1        0.0000
     32  O         12.2490    5.2190   24.3440 O.2     1  UNL1        0.0000
     33  H         10.7520    4.6730   27.0630 H       1  UNL1        0.0000
     34 CL         15.0980    5.9290   25.4960 Cl      1  UNL1        0.0000
     35  C         13.8560    6.7610   26.3640 C.ar    1  UNL1        0.0000
     36  C         14.2750    7.8440   27.1430 C.ar    1  UNL1        0.0000
     37  C         13.3550    8.5700   27.9030 C.ar    1  UNL1        0.0000
     38  C         11.9990    8.2250   27.9110 C.ar    1  UNL1        0.0000
     39  C         11.5830    7.1380   27.1310 C.ar    1  UNL1        0.0000
     40  C         12.5000    6.4000   26.3390 C.ar    1  UNL1        0.0000
     41  H         15.2720    8.1100   27.1550 H       1  UNL1        0.0000
     42  H         13.6800    9.3720   28.4660 H       1  UNL1        0.0000
     43  H         10.5870    6.8680   27.1330 H       1  UNL1        0.0000
     44  C         11.0800    9.0770   28.7310 C.2     1  UNL1        0.0000
     45  N         10.7530   10.3320   28.2630 N.am    1  UNL1        0.0000
     46  O         10.6520    8.6370   29.7940 O.2     1  UNL1        0.0000
     47  H         11.0880   10.6220   27.3830 H       1  UNL1        0.0000
     48  C          9.9270   11.2300   29.0390 C.3     1  UNL1        0.0000
     49  H          9.0910   10.6930   29.4360 H       1  UNL1        0.0000
     50  H          9.5760   12.0240   28.4130 H       1  UNL1        0.0000
     51  H         10.5030   11.6390   29.8430 H       1  UNL1        0.0000
@<TRIPOS>BOND
     1     1     2   ar
     2     1    31    1
     3     1     9   ar
     4     2    10    1
     5     2     3   ar
     6     3     4   ar
     7     3     7   ar
     8     4     5   ar
     9     5    13    1
    10     5     6   ar
    11     6     7   ar
    12     7     8   ar
    13     8     9   ar
    14     8    11    1
    15     9    12    1
    16    13    14   ar
    17    13    18   ar
    18    14    15   ar
    19    14    19    1
    20    15    20    1
    21    15    16   ar
    22    16    23    1
    23    16    17   ar
    24    17    21    1
    25    17    18   ar
    26    18    22    1
    27    23    24    1
    28    23    26    1
    29    23    25    1
    30    26    27    1
    31    26    29    1
    32    26    28    1
    33    30    32    2
    34    30    31   am
    35    30    40    1
    36    31    33    1
    37    34    35    1
    38    35    40   ar
    39    35    36   ar
    40    36    41    1
    41    36    37   ar
    42    37    38   ar
    43    37    42    1
    44    38    39   ar
    45    38    44    1
    46    39    40   ar
    47    39    43    1
    48    44    45   am
    49    44    46    2
    50    45    47    1
    51    45    48    1
    52    48    50    1
    53    48    49    1
    54    48    51    1
