@<TRIPOS>MOLECULE
UNL
 36 41 0 0 0
SMALL
GASTEIGER

@<TRIPOS>ATOM
      1  O         13.4580    4.8540   23.4020 O.2     1  UNL1        0.0000
      2  C         12.6780    4.4890   24.2690 C.2     1  UNL1        0.0000
      3  C         12.0830    3.1120   24.3240 C.3     1  UNL1        0.0000
      4  C         11.2170    3.1610   25.5760 C.3     1  UNL1        0.0000
      5  C         11.3480    4.5650   26.0780 C.ar    1  UNL1        0.0000
      6  C         10.6130    5.1460   27.2050 C.ar    1  UNL1        0.0000
      7  C         10.8730    6.5000   27.4860 C.ar    1  UNL1        0.0000
      8  C         10.1680    7.1730   28.4670 C.ar    1  UNL1        0.0000
      9  C          9.1720    6.5100   29.1570 C.ar    1  UNL1        0.0000
     10  C          8.9080    5.1670   28.9600 C.ar    1  UNL1        0.0000
     11  C          9.6560    4.4680   27.9990 C.ar    1  UNL1        0.0000
     12  O          8.4760    7.2980   30.0350 O.3     1  UNL1        0.0000
     13  C          8.9280    8.6370   29.7340 C.3     1  UNL1        0.0000
     14  O          8.0050    9.3340   28.8580 O.3     1  UNL1        0.0000
     15  C          8.7890   10.0650   27.8820 C.3     1  UNL1        0.0000
     16  C         10.2060    9.6240   27.9610 C.3     1  UNL1        0.0000
     17  O          9.8080   10.9190   28.4230 O.3     1  UNL1        0.0000
     18  C         10.2860    8.5620   28.9900 C.3     1  UNL1        0.0000
     19  C         12.1850    5.3280   25.3640 C.ar    1  UNL1        0.0000
     20  C         12.4850    6.7250   25.6420 C.ar    1  UNL1        0.0000
     21  O         11.8350    7.2380   26.7640 O.2     1  UNL1        0.0000
     22  O         13.2400    7.4180   24.9770 O.2     1  UNL1        0.0000
     23  H         12.8460    2.3670   24.4130 H       1  UNL1        0.0000
     24  H         11.5340    2.8540   23.4420 H       1  UNL1        0.0000
     25  H         11.5710    2.4660   26.3080 H       1  UNL1        0.0000
     26  H         10.1990    2.8990   25.3750 H       1  UNL1        0.0000
     27  H          8.1750    4.6880   29.5060 H       1  UNL1        0.0000
     28  H          9.0060    9.1620   30.6630 H       1  UNL1        0.0000
     29  H          8.0310   10.2050   27.1400 H       1  UNL1        0.0000
     30  H         10.9950    9.2990   27.3140 H       1  UNL1        0.0000
     31  H         11.2090    8.7140   29.5090 H       1  UNL1        0.0000
     32  O          9.4550    3.1320   27.7590 O.3     1  UNL1        0.0000
     33  C          8.5770    2.4710   28.6670 C.3     1  UNL1        0.0000
     34  H          8.4750    3.0600   29.5560 H       1  UNL1        0.0000
     35  H          8.9800    1.5130   28.9200 H       1  UNL1        0.0000
     36  H          7.6190    2.3460   28.2100 H       1  UNL1        0.0000
@<TRIPOS>BOND
     1     1     2    2
     2     2     3    1
     3     2    19    1
     4     3    24    1
     5     3    23    1
     6     3     4    1
     7     4    26    1
     8     4     5    1
     9     4    25    1
    10     5    19   ar
    11     5     6   ar
    12     6     7   ar
    13     6    11   ar
    14     7    21   ar
    15     7     8   ar
    16     8    18    1
    17     8     9   ar
    18     9    10   ar
    19     9    12    1
    20    10    11   ar
    21    10    27    1
    22    11    32    1
    23    12    13    1
    24    13    14    1
    25    13    18    1
    26    13    28    1
    27    14    15    1
    28    15    29    1
    29    15    16    1
    30    15    17    1
    31    16    30    1
    32    16    17    1
    33    16    18    1
    34    18    31    1
    35    19    20   ar
    36    20    22    2
    37    20    21   ar
    38    32    33    1
    39    33    36    1
    40    33    35    1
    41    33    34    1
