@<TRIPOS>MOLECULE
UNL
 27 26 0 0 0
SMALL
GASTEIGER

@<TRIPOS>ATOM
      1  C         11.7860    6.9360   25.0150 C.3     1  UNL1        0.0000
      2  H         12.3040    7.8430   24.7800 H       1  UNL1        0.0000
      3  H         10.7350    7.0990   25.1260 H       1  UNL1        0.0000
      4  C         11.9810    5.9470   23.8640 C.3     1  UNL1        0.0000
      5  H         12.2890    6.4870   22.9920 H       1  UNL1        0.0000
      6  H         11.0530    5.4440   23.6930 H       1  UNL1        0.0000
      7  C         13.0390    4.8980   24.1970 C.3     1  UNL1        0.0000
      8  H         12.6370    3.9240   24.0130 H       1  UNL1        0.0000
      9  H         13.3110    5.0010   25.2260 H       1  UNL1        0.0000
     10  C         14.2890    5.0930   23.3390 C.3     1  UNL1        0.0000
     11  H         14.6040    4.1420   22.9610 H       1  UNL1        0.0000
     12  H         15.0530    5.5290   23.9480 H       1  UNL1        0.0000
     13  C         14.0180    6.0250   22.1710 C.3     1  UNL1        0.0000
     14  H         14.9250    6.1890   21.6280 H       1  UNL1        0.0000
     15  H         13.6480    6.9580   22.5380 H       1  UNL1        0.0000
     16  H         13.2910    5.5820   21.5230 H       1  UNL1        0.0000
     17  C         12.3150    6.4020   26.3520 C.3     1  UNL1        0.0000
     18  H         12.9930    5.6070   26.1170 H       1  UNL1        0.0000
     19  C         14.3930    7.5590   27.1130 C.2     1  UNL1        0.0000
     20  C         13.0560    7.4410   27.1410 C.2     1  UNL1        0.0000
     21  H         14.9500    6.8860   26.5640 H       1  UNL1        0.0000
     22  H         12.5150    8.0940   27.7310 H       1  UNL1        0.0000
     23  O         14.9850    8.7260   29.0700 O.2     1  UNL1        0.0000
     24  C         15.0800    8.6340   27.8540 C.2     1  UNL1        0.0000
     25  H         15.6510    9.3200   27.3370 H       1  UNL1        0.0000
     26  O         11.2270    5.9520   27.1490 O.3     1  UNL1        0.0000
     27  H         10.6910    5.3240   26.6390 H       1  UNL1        0.0000
@<TRIPOS>BOND
     1     1     4    1
     2     1     2    1
     3     1     3    1
     4     1    17    1
     5     4     5    1
     6     4     6    1
     7     4     7    1
     8     7    10    1
     9     7     8    1
    10     7     9    1
    11    10    13    1
    12    10    11    1
    13    10    12    1
    14    13    16    1
    15    13    14    1
    16    13    15    1
    17    17    18    1
    18    17    20    1
    19    17    26    1
    20    19    21    1
    21    19    20    2
    22    19    24    1
    23    20    22    1
    24    23    24    2
    25    24    25    1
    26    26    27    1
