@<TRIPOS>MOLECULE
UNL
 8 7 0 0 0
SMALL
GASTEIGER

@<TRIPOS>ATOM
      1 CL         14.3550    6.1420   26.8970 Cl      1  UNL1       -0.0924
      2  C         13.8700    7.8570   26.9950 C.3     1  UNL1        0.2034
      3 CL         12.2610    7.9820   27.7270 Cl      1  UNL1       -0.0924
      4  H         13.8510    8.2550   26.0030 H       1  UNL1        0.0752
      5  C         14.8660    8.6640   27.8190 C.2     1  UNL1        0.3378
      6  O         15.6680    9.5120   27.1210 O.2     1  UNL1       -0.2480
      7  O         14.9520    8.5900   29.0390 O.3     1  UNL1       -0.4788
      8 H          14.3961    8.0034   29.5131 H       1  UNL1        0.2951
@<TRIPOS>BOND
     1     1     2    1
     2     2     4    1
     3     2     3    1
     4     2     5    1
     5     5     6    2
     6     5     7    1
     7     7     8    1
