@<TRIPOS>MOLECULE
UNL
 16 16 0 0 0
SMALL
GASTEIGER

@<TRIPOS>ATOM
      1 CL         15.7360    6.2630   25.9870 Cl      1  UNL1        0.0000
      2  C         14.1390    6.7090   26.4610 C.ar    1  UNL1        0.0000
      3  C         13.8530    7.7970   27.2910 C.ar    1  UNL1        0.0000
      4  C         12.5350    8.1570   27.6130 C.ar    1  UNL1        0.0000
      5  C         11.4860    7.3880   27.0940 C.ar    1  UNL1        0.0000
      6  C         11.7530    6.2860   26.2680 C.ar    1  UNL1        0.0000
      7  C         13.0770    5.9530   25.9540 C.ar    1  UNL1        0.0000
      8  H         12.3430    8.9690   28.2200 H       1  UNL1        0.0000
      9  H         10.9740    5.7220   25.8920 H       1  UNL1        0.0000
     10  H         13.2710    5.1440   25.3440 H       1  UNL1        0.0000
     11  N         14.9200    8.6010   27.8460 N.pl3   1  UNL1        0.0000
     12  O         15.0900    8.5510   29.0700 O.2     1  UNL1        0.0000
     13  O         15.5370    9.3260   27.0560 O.2     1  UNL1        0.0000
     14  N         10.0960    7.7370   27.4180 N.pl3   1  UNL1        0.0000
     15  O          9.4730    8.4210   26.5960 O.2     1  UNL1        0.0000
     16  O          9.6380    7.3280   28.4920 O.2     1  UNL1        0.0000
@<TRIPOS>BOND
     1     1     2    1
     2     2     7   ar
     3     2     3   ar
     4     3     4   ar
     5     3    11    1
     6     4     5   ar
     7     4     8    1
     8     5     6   ar
     9     5    14    1
    10     6     9    1
    11     6     7   ar
    12     7    10    1
    13    11    13    2
    14    11    12    2
    15    14    15    2
    16    14    16    2
