@<TRIPOS>MOLECULE
UNL
 14 14 0 0 0
SMALL
GASTEIGER

@<TRIPOS>ATOM
      1 CL         11.5150    8.5860   28.0940 Cl      1  UNL1        0.0000
      2  C         12.6420    7.6730   27.1550 C.ar    1  UNL1        0.0000
      3  C         14.0290    7.8430   27.2700 C.ar    1  UNL1        0.0000
      4 CL         14.7300    8.9990   28.3460 Cl      1  UNL1        0.0000
      5  C         14.8990    7.0630   26.5010 C.ar    1  UNL1        0.0000
      6  C         14.3740    6.1140   25.6140 C.ar    1  UNL1        0.0000
      7  C         12.9880    5.9490   25.4830 C.ar    1  UNL1        0.0000
      8  C         12.1260    6.7300   26.2580 C.ar    1  UNL1        0.0000
      9  H         15.9190    7.1850   26.5870 H       1  UNL1        0.0000
     10  H         12.6070    5.2560   24.8200 H       1  UNL1        0.0000
     11  H         11.1050    6.6120   26.1680 H       1  UNL1        0.0000
     12  N         15.2840    5.2780   24.8220 N.pl3   1  UNL1        0.0000
     13  O         16.4710    5.2330   25.1690 O.2     1  UNL1        0.0000
     14  O         14.8080    4.6660   23.8560 O.2     1  UNL1        0.0000
@<TRIPOS>BOND
     1     1     2    1
     2     2     8   ar
     3     2     3   ar
     4     3     5   ar
     5     3     4    1
     6     5     6   ar
     7     5     9    1
     8     6    12    1
     9     6     7   ar
    10     7    10    1
    11     7     8   ar
    12     8    11    1
    13    12    14    2
    14    12    13    2
