@<TRIPOS>MOLECULE
UNL
 31 31 0 0 0
SMALL
GASTEIGER

@<TRIPOS>ATOM
      1 CL         14.7820    8.2310   28.1320 Cl      1  UNL1       -0.0782
      2  C         13.3930    7.7650   27.1950 C.ar    1  UNL1        0.1015
      3  C         13.5700    6.8740   26.1020 C.ar    1  UNL1        0.0736
      4 CL         15.1720    6.3420   25.6700 Cl      1  UNL1       -0.0812
      5  C         12.4520    6.3860   25.4020 C.ar    1  UNL1        0.0418
      6  C         11.1690    6.8010   25.7810 C.ar    1  UNL1       -0.0460
      7  C         10.9980    7.6800   26.8520 C.ar    1  UNL1       -0.0177
      8  C         12.0970    8.1930   27.5520 C.ar    1  UNL1        0.1410
      9  H         10.3440    6.4550   25.2650 H       1  UNL1        0.0626
     10  H         10.0440    7.9560   27.1330 H       1  UNL1        0.0655
     11  C         12.5870    5.5030   24.2080 C.2     1  UNL1        0.1901
     12  O         12.4120    4.2980   24.3320 O.2     1  UNL1       -0.2870
     13  C         13.0430    6.0700   22.8880 C.2     1  UNL1       -0.0074
     14  C         14.1390    5.6410   22.2400 C.2     1  UNL1       -0.0919
     15  H         14.7120    4.8820   22.6410 H       1  UNL1        0.0539
     16  H         14.4080    6.0700   21.3400 H       1  UNL1        0.0539
     17  C         12.1820    7.1810   22.3250 C.3     1  UNL1       -0.0274
     18  H         12.6220    7.5260   21.4120 H       1  UNL1        0.0311
     19  H         12.1360    7.9580   23.0590 H       1  UNL1        0.0311
     20  C         10.7570    6.7280   22.0410 C.3     1  UNL1       -0.0612
     21  H         10.0700    7.3740   22.5480 H       1  UNL1        0.0233
     22  H         10.6250    5.7240   22.3880 H       1  UNL1        0.0233
     23  H         10.5720    6.7690   20.9880 H       1  UNL1        0.0233
     24  O         11.7130    9.0330   28.5690 O.3     1  UNL1       -0.4793
     25  C         10.3140    9.1770   28.8400 C.3     1  UNL1        0.1858
     26  H         10.1220    8.9110   29.8580 H       1  UNL1        0.0815
     27  H          9.7640    8.5340   28.1840 H       1  UNL1        0.0815
     28  C          9.8740   10.6150   28.6040 C.2     1  UNL1        0.3427
     29  O          8.7300   10.7220   27.8900 O.2     1  UNL1       -0.2472
     30  O         10.4850   11.5920   29.0150 O.3     1  UNL1       -0.4783
     31 H          11.2745   11.4781   29.5066 H       1  UNL1        0.2952
@<TRIPOS>BOND
     1     1     2    1
     2     2     3   ar
     3     2     8   ar
     4     3     5   ar
     5     3     4    1
     6     5    11    1
     7     5     6   ar
     8     6     9    1
     9     6     7   ar
    10     7    10    1
    11     7     8   ar
    12     8    24    1
    13    11    13    1
    14    11    12    2
    15    13    14    2
    16    13    17    1
    17    14    16    1
    18    14    15    1
    19    17    18    1
    20    17    20    1
    21    17    19    1
    22    20    23    1
    23    20    22    1
    24    20    21    1
    25    24    25    1
    26    25    27    1
    27    25    28    1
    28    25    26    1
    29    28    29    2
    30    28    30    1
    31    30    31    1
