@<TRIPOS>MOLECULE
UNL
 27 29 0 0 0
SMALL
GASTEIGER

@<TRIPOS>ATOM
      1  C         12.3190    6.1490   25.6590 C.3     1  UNL1        0.0000
      2  C         12.3450    7.4000   26.5250 C.3     1  UNL1        0.0000
      3  O         13.3340    6.3670   26.6530 O.3     1  UNL1        0.0000
      4  H         11.6040    5.3840   25.4440 H       1  UNL1        0.0000
      5  H         12.3460    8.4550   26.3410 H       1  UNL1        0.0000
      6  C         12.6990    6.2560   24.2060 C.ar    1  UNL1        0.0000
      7  C         13.8590    5.6460   23.7020 C.ar    1  UNL1        0.0000
      8  C         14.1920    5.7270   22.3460 C.ar    1  UNL1        0.0000
      9  C         13.3680    6.4230   21.4650 C.ar    1  UNL1        0.0000
     10  C         12.2140    7.0380   21.9390 C.ar    1  UNL1        0.0000
     11  C         11.8840    6.9500   23.2950 C.ar    1  UNL1        0.0000
     12  H         14.4770    5.1280   24.3440 H       1  UNL1        0.0000
     13  H         15.0500    5.2710   21.9990 H       1  UNL1        0.0000
     14  H         13.6140    6.4840   20.4640 H       1  UNL1        0.0000
     15  H         11.6010    7.5560   21.2910 H       1  UNL1        0.0000
     16  H         11.0220    7.4050   23.6330 H       1  UNL1        0.0000
     17  C         11.3310    7.5670   27.6270 C.ar    1  UNL1        0.0000
     18  C         11.1980    8.7780   28.3250 C.ar    1  UNL1        0.0000
     19  C         10.2220    8.9470   29.3100 C.ar    1  UNL1        0.0000
     20  C          9.3560    7.9030   29.6200 C.ar    1  UNL1        0.0000
     21  C          9.4700    6.6890   28.9490 C.ar    1  UNL1        0.0000
     22  C         10.4470    6.5270   27.9630 C.ar    1  UNL1        0.0000
     23  H         11.8350    9.5600   28.1050 H       1  UNL1        0.0000
     24  H         10.1430    9.8480   29.8080 H       1  UNL1        0.0000
     25  H          8.6320    8.0290   30.3440 H       1  UNL1        0.0000
     26  H          8.8340    5.9100   29.1800 H       1  UNL1        0.0000
     27  H         10.5210    5.6230   27.4700 H       1  UNL1        0.0000
@<TRIPOS>BOND
     1     1     6    1
     2     1     4    1
     3     1     2    1
     4     1     3    1
     5     2     5    1
     6     2     3    1
     7     2    17    1
     8     6    11   ar
     9     6     7   ar
    10     7     8   ar
    11     7    12    1
    12     8     9   ar
    13     8    13    1
    14     9    14    1
    15     9    10   ar
    16    10    15    1
    17    10    11   ar
    18    11    16    1
    19    17    22   ar
    20    17    18   ar
    21    18    23    1
    22    18    19   ar
    23    19    20   ar
    24    19    24    1
    25    20    21   ar
    26    20    25    1
    27    21    22   ar
    28    21    26    1
    29    22    27    1
