@<TRIPOS>MOLECULE
UNL
 23 24 0 0 0
SMALL
GASTEIGER

@<TRIPOS>ATOM
      1  C         12.7690    6.5030   22.4470 C.ar    1  UNL1        0.0000
      2  C         12.2160    7.1810   23.5370 C.ar    1  UNL1        0.0000
      3  C         12.8040    7.0430   24.7980 C.ar    1  UNL1        0.0000
      4  C         13.9250    6.2270   24.9750 C.ar    1  UNL1        0.0000
      5  C         14.5010    5.5960   23.8720 C.ar    1  UNL1        0.0000
      6  C         13.9210    5.7210   22.6050 C.ar    1  UNL1        0.0000
      7  H         11.3830    7.7770   23.4120 H       1  UNL1        0.0000
      8  H         12.4060    7.5490   25.6050 H       1  UNL1        0.0000
      9  H         15.3590    5.0340   23.9900 H       1  UNL1        0.0000
     10  H         14.3380    5.2410   21.7930 H       1  UNL1        0.0000
     11  O         10.9080    6.4420   21.0650 O.2     1  UNL1        0.0000
     12  N         12.1370    6.5950   21.1250 N.pl3   1  UNL1        0.0000
     13  O         12.8650    6.8150   20.1480 O.2     1  UNL1        0.0000
     14  O         14.3640    6.1190   26.2670 O.3     1  UNL1        0.0000
     15  C         13.8440    7.0810   27.1880 C.3     1  UNL1        0.0000
     16  H         13.5430    6.5900   28.0900 H       1  UNL1        0.0000
     17  H         12.9960    7.5730   26.7630 H       1  UNL1        0.0000
     18  C         14.9150    8.0770   27.4900 C.3     1  UNL1        0.0000
     19  O         15.0370    8.4050   28.8820 O.3     1  UNL1        0.0000
     20  C         14.5780    9.4490   28.0120 C.3     1  UNL1        0.0000
     21  H         15.5320    7.7380   26.6860 H       1  UNL1        0.0000
     22  H         13.5610    9.7760   28.0530 H       1  UNL1        0.0000
     23  H         14.8850   10.4500   27.7900 H       1  UNL1        0.0000
@<TRIPOS>BOND
     1     1    12    1
     2     1     6   ar
     3     1     2   ar
     4     2     7    1
     5     2     3   ar
     6     3     4   ar
     7     3     8    1
     8     4     5   ar
     9     4    14    1
    10     5     6   ar
    11     5     9    1
    12     6    10    1
    13    11    12    2
    14    12    13    2
    15    14    15    1
    16    15    17    1
    17    15    18    1
    18    15    16    1
    19    18    21    1
    20    18    20    1
    21    18    19    1
    22    19    20    1
    23    20    23    1
    24    20    22    1
