@<TRIPOS>MOLECULE
UNL
 22 21 0 0 0
SMALL
GASTEIGER

@<TRIPOS>ATOM
      1  C         10.5640    7.3960   27.3780 C.3     1  UNL1        0.0689
      2  H          9.5560    7.1300   27.6200 H       1  UNL1        0.0422
      3  H         11.2590    6.6030   27.5580 H       1  UNL1        0.0422
      4  C         10.9770    8.5420   28.2670 C.2     1  UNL1        0.1514
      5  O         12.1320    8.9730   28.3190 O.2     1  UNL1       -0.2964
      6  C          9.8930    9.2190   29.0570 C.3     1  UNL1        0.1035
      7  H          9.1070    8.5100   29.2130 H       1  UNL1        0.0456
      8  H         10.3540    9.5550   29.9610 H       1  UNL1        0.0456
      9  O          9.7870   11.6310   28.8210 O.3     1  UNL1       -0.4803
     10  C          9.2960   10.4410   28.4180 C.2     1  UNL1        0.3119
     11  O          8.3730   10.3660   27.6190 O.2     1  UNL1       -0.2505
     12  C         10.6290    7.6990   25.9100 C.2     1  UNL1        0.1634
     13  O          9.6830    8.2610   25.3530 O.2     1  UNL1       -0.2922
     14  C         11.8400    7.4320   25.0840 C.2     1  UNL1       -0.0121
     15  C         12.0450    7.0240   23.8230 C.2     1  UNL1        0.0256
     16  H         12.7190    7.5970   25.5990 H       1  UNL1        0.0655
     17  H         13.0340    6.9070   23.5540 H       1  UNL1        0.0690
     18  C         11.0700    6.7210   22.7700 C.2     1  UNL1        0.3297
     19  O         10.7280    5.4260   22.8300 O.3     1  UNL1       -0.4775
     20  O         10.5920    7.4710   21.9460 O.2     1  UNL1       -0.2458
     21 H          10.4948   11.6624   29.4342 H       1  UNL1        0.2951
     22 H          11.1135    4.8691   23.4775 H       1  UNL1        0.2954
@<TRIPOS>BOND
     1     1    12    1
     2     1     3    1
     3     1     2    1
     4     1     4    1
     5     4     5    2
     6     4     6    1
     7     6    10    1
     8     6     7    1
     9     6     8    1
    10     9    10    1
    11     9    21    1
    12    10    11    2
    13    12    14    1
    14    12    13    2
    15    14    15    2
    16    14    16    1
    17    15    18    1
    18    15    17    1
    19    18    20    2
    20    18    19    1
    21    19    22    1
