@<TRIPOS>MOLECULE
UNL
 39 44 0 0 0
SMALL
GASTEIGER

@<TRIPOS>ATOM
      1  C         12.8500    7.3390   23.8430 C.3     1  UNL1        0.0000
      2  C         13.0110    5.7960   23.7150 C.3     1  UNL1        0.0000
      3  C         12.0450    4.9770   24.5700 C.ar    1  UNL1        0.0000
      4  C         11.6970    3.6640   24.2060 C.ar    1  UNL1        0.0000
      5  C         10.9080    2.8530   25.0400 C.ar    1  UNL1        0.0000
      6  C         10.4160    3.3740   26.2520 C.ar    1  UNL1        0.0000
      7  C          9.5990    2.5520   27.0710 C.ar    1  UNL1        0.0000
      8  C          9.3590    1.2090   26.7220 C.ar    1  UNL1        0.0000
      9  C          9.8730    0.7040   25.5260 C.ar    1  UNL1        0.0000
     10  C         10.6230    1.5250   24.6830 C.ar    1  UNL1        0.0000
     11  C         10.7720    4.6950   26.6290 C.ar    1  UNL1        0.0000
     12  C         10.2800    5.2310   27.9610 C.3     1  UNL1        0.0000
     13  C          9.3310    4.3380   28.7000 C.2     1  UNL1        0.0000
     14  C          8.9880    3.1030   28.3000 C.2     1  UNL1        0.0000
     15  C          7.9830    2.2700   29.0570 C.3     1  UNL1        0.0000
     16  C          7.9860    0.8160   28.6930 C.2     1  UNL1        0.0000
     17  C          8.6110    0.3200   27.6170 C.2     1  UNL1        0.0000
     18  C         11.6120    5.5010   25.8120 C.ar    1  UNL1        0.0000
     19  C         12.0730    6.8800   26.2540 C.3     1  UNL1        0.0000
     20  C         12.7090    7.7990   25.2520 C.3     1  UNL1        0.0000
     21  O         13.4980    7.1280   26.2360 O.3     1  UNL1        0.0000
     22  H         13.7530    7.7360   23.4300 H       1  UNL1        0.0000
     23  H         13.9690    5.5410   24.1170 H       1  UNL1        0.0000
     24  H         12.0300    3.2850   23.3050 H       1  UNL1        0.0000
     25  H          9.7000   -0.2790   25.2660 H       1  UNL1        0.0000
     26  H         10.9720    1.1520   23.7870 H       1  UNL1        0.0000
     27  H          9.7840    6.1620   27.7790 H       1  UNL1        0.0000
     28  H         11.1470    5.3200   28.5820 H       1  UNL1        0.0000
     29  H          8.9150    4.6960   29.5750 H       1  UNL1        0.0000
     30  H          7.0070    2.6630   28.8590 H       1  UNL1        0.0000
     31  H          8.2550    2.3280   30.0900 H       1  UNL1        0.0000
     32  H          7.4780    0.1580   29.3070 H       1  UNL1        0.0000
     33  H          8.5650   -0.6920   27.4170 H       1  UNL1        0.0000
     34  H         11.2720    6.9680   26.9570 H       1  UNL1        0.0000
     35  H         12.5460    8.8140   24.9550 H       1  UNL1        0.0000
     36  O         11.7060    7.8190   23.1230 O.3     1  UNL1        0.0000
     37  H         11.4300    7.1530   22.4750 H       1  UNL1        0.0000
     38  O         12.9540    5.4400   22.3270 O.3     1  UNL1        0.0000
     39  H         13.7190    5.8180   21.8640 H       1  UNL1        0.0000
@<TRIPOS>BOND
     1     1    36    1
     2     1    22    1
     3     1     2    1
     4     1    20    1
     5     2    38    1
     6     2    23    1
     7     2     3    1
     8     3     4   ar
     9     3    18   ar
    10     4    24    1
    11     4     5   ar
    12     5    10   ar
    13     5     6   ar
    14     6    11   ar
    15     6     7   ar
    16     7     8   ar
    17     7    14    1
    18     8     9   ar
    19     8    17    1
    20     9    10   ar
    21     9    25    1
    22    10    26    1
    23    11    18   ar
    24    11    12    1
    25    12    27    1
    26    12    28    1
    27    12    13    1
    28    13    14    2
    29    13    29    1
    30    14    15    1
    31    15    16    1
    32    15    30    1
    33    15    31    1
    34    16    17    2
    35    16    32    1
    36    17    33    1
    37    18    19    1
    38    19    20    1
    39    19    21    1
    40    19    34    1
    41    20    35    1
    42    20    21    1
    43    36    37    1
    44    38    39    1
