@<TRIPOS>MOLECULE
UNL
 17 18 0 0 0
SMALL
GASTEIGER

@<TRIPOS>ATOM
      1  C         12.9920    6.3680   26.2770 C.ar    1  UNL1        0.0000
      2  C         14.3300    6.5970   26.6430 C.ar    1  UNL1        0.0000
      3  C         15.3890    6.2070   25.8180 C.ar    1  UNL1        0.0000
      4  C         15.1290    5.5780   24.6040 C.ar    1  UNL1        0.0000
      5  C         13.8140    5.3400   24.2160 C.ar    1  UNL1        0.0000
      6  C         12.7600    5.7300   25.0470 C.ar    1  UNL1        0.0000
      7  H         14.5340    7.0640   27.5400 H       1  UNL1        0.0000
      8  H         16.3630    6.3860   26.1100 H       1  UNL1        0.0000
      9  H         15.9100    5.2880   23.9940 H       1  UNL1        0.0000
     10  H         13.6170    4.8760   23.3160 H       1  UNL1        0.0000
     11  H         11.7900    5.5450   24.7510 H       1  UNL1        0.0000
     12  C         11.8560    6.7600   27.1810 C.3     1  UNL1        0.0000
     13  C         11.0330    7.9920   26.8820 C.3     1  UNL1        0.0000
     14  O         11.9920    7.9740   27.9430 O.3     1  UNL1        0.0000
     15  H         11.6290    5.7320   27.3780 H       1  UNL1        0.0000
     16  H          9.9860    8.0080   27.1020 H       1  UNL1        0.0000
     17  H         10.8560    8.6030   26.0210 H       1  UNL1        0.0000
@<TRIPOS>BOND
     1     1     6   ar
     2     1     2   ar
     3     1    12    1
     4     2     3   ar
     5     2     7    1
     6     3     4   ar
     7     3     8    1
     8     4     9    1
     9     4     5   ar
    10     5    10    1
    11     5     6   ar
    12     6    11    1
    13    12    13    1
    14    12    15    1
    15    12    14    1
    16    13    17    1
    17    13    16    1
    18    13    14    1
