@<TRIPOS>MOLECULE
UNL
 10 9 0 0 0
SMALL
GASTEIGER

@<TRIPOS>ATOM
      1 CL         14.9840    8.4290   27.7580 Cl      1  UNL1        0.0000
      2  C         13.5340    7.7010   27.1400 C.2     1  UNL1        0.0000
      3 CL         12.0560    8.3570   27.7780 Cl      1  UNL1        0.0000
      4  C         13.5450    6.6970   26.2450 C.2     1  UNL1        0.0000
      5 CL         15.0400    6.0320   25.6300 Cl      1  UNL1        0.0000
      6  C         12.3510    6.0670   25.6970 C.2     1  UNL1        0.0000
      7 CL         11.6710    4.8270   26.7240 Cl      1  UNL1        0.0000
      8  C         11.7930    6.3850   24.5110 C.2     1  UNL1        0.0000
      9 CL         10.3620    5.6130   23.9040 Cl      1  UNL1        0.0000
     10 CL         12.4710    7.6000   23.4680 Cl      1  UNL1        0.0000
@<TRIPOS>BOND
     1     1     2    1
     2     2     4    2
     3     2     3    1
     4     4     5    1
     5     4     6    1
     6     6     8    2
     7     6     7    1
     8     8    10    1
     9     8     9    1
