@<TRIPOS>MOLECULE
UNL
 6 5 0 0 0
SMALL
GASTEIGER

@<TRIPOS>ATOM
      1 CL         14.8050    8.8050   27.9050 Cl      1  UNL1        0.0000
      2  C         13.9800    7.5280   27.0870 C.2     1  UNL1        0.0000
      3 CL         14.9530    6.3850   26.2250 Cl      1  UNL1        0.0000
      4  C         12.6520    7.3880   27.0920 C.2     1  UNL1        0.0000
      5 CL         11.5370    8.4190   27.8870 Cl      1  UNL1        0.0000
      6  H         12.2630    6.5880   26.5700 H       1  UNL1        0.0000
@<TRIPOS>BOND
     1     1     2    1
     2     2     3    1
     3     2     4    2
     4     4     6    1
     5     4     5    1
