@<TRIPOS>MOLECULE
UNL
 5 4 0 0 0
SMALL
GASTEIGER

@<TRIPOS>ATOM
      1  C         14.2500    7.4950   27.1810 C.3     1  UNL1        0.0000
      2 CL         15.0730    6.3310   26.1350 Cl      1  UNL1        0.0000
      3 CL         15.3870    8.6810   27.8300 Cl      1  UNL1        0.0000
      4  H         13.7890    6.9720   27.9920 H       1  UNL1        0.0000
      5  H         13.5160    8.0120   26.6000 H       1  UNL1        0.0000
@<TRIPOS>BOND
     1     1     2    1
     2     1     5    1
     3     1     3    1
     4     1     4    1
