@<TRIPOS>MOLECULE
UNL
 7 7 0 0 0
SMALL
GASTEIGER

@<TRIPOS>ATOM
      1  C         11.6850    7.4410   27.2730 C.3     1  UNL1        0.0000
      2  C         11.0990    8.6110   28.0140 C.3     1  UNL1        0.0000
      3  O         12.5100    8.3590   28.0030 O.3     1  UNL1        0.0000
      4  H         11.7010    7.4350   26.2030 H       1  UNL1        0.0000
      5  H         11.5340    6.3820   27.2710 H       1  UNL1        0.0000
      6  H         10.5310    8.4520   28.9070 H       1  UNL1        0.0000
      7  H         10.4670    9.4360   27.7640 H       1  UNL1        0.0000
@<TRIPOS>BOND
     1     1     4    1
     2     1     5    1
     3     1     3    1
     4     1     2    1
     5     2     7    1
     6     2     3    1
     7     2     6    1
