@<TRIPOS>MOLECULE
UNL
 18 18 0 0 0
SMALL
GASTEIGER

@<TRIPOS>ATOM
      1 CL         12.8150    6.7490   24.1560 Cl      1  UNL1        0.0000
      2  C         12.6130    5.8550   25.7180 C.3     1  UNL1        0.0000
      3  C         11.3030    5.0520   25.6400 C.3     1  UNL1        0.0000
      4 CL         11.3340    3.7600   26.8860 Cl      1  UNL1        0.0000
      5  C         10.0720    5.9830   25.7290 C.3     1  UNL1        0.0000
      6 CL          8.5270    5.0770   25.6070 Cl      1  UNL1        0.0000
      7  C         10.0830    6.9760   26.9120 C.3     1  UNL1        0.0000
      8 CL          9.7590    6.1730   28.4900 Cl      1  UNL1        0.0000
      9  C         11.4170    7.7580   26.9320 C.3     1  UNL1        0.0000
     10 CL         11.4520    8.9320   28.2970 Cl      1  UNL1        0.0000
     11  C         12.6380    6.8140   26.9320 C.3     1  UNL1        0.0000
     12 CL         14.1950    7.7200   26.9630 Cl      1  UNL1        0.0000
     13  H         13.4320    5.1830   25.8640 H       1  UNL1        0.0000
     14  H         11.2160    4.5720   24.6880 H       1  UNL1        0.0000
     15  H         10.1470    6.6100   24.8650 H       1  UNL1        0.0000
     16  H          9.2830    7.6700   26.7640 H       1  UNL1        0.0000
     17  H         11.4810    8.3260   26.0270 H       1  UNL1        0.0000
     18  H         12.5700    6.2350   27.8290 H       1  UNL1        0.0000
@<TRIPOS>BOND
     1     1     2    1
     2     2     3    1
     3     2    13    1
     4     2    11    1
     5     3    14    1
     6     3     5    1
     7     3     4    1
     8     5    15    1
     9     5     6    1
    10     5     7    1
    11     7    16    1
    12     7     9    1
    13     7     8    1
    14     9    17    1
    15     9    11    1
    16     9    10    1
    17    11    12    1
    18    11    18    1
