@<TRIPOS>MOLECULE
UNL
 38 38 0 0 0
SMALL
GASTEIGER

@<TRIPOS>ATOM
      1  C         10.1430    5.2750   27.4420 C.ar    1  UNL1        0.0000
      2  C         10.4780    6.6020   27.0970 C.ar    1  UNL1        0.0000
      3  C          9.9240    7.6580   27.8430 C.ar    1  UNL1        0.0000
      4  C          9.2800    7.3840   29.0610 C.ar    1  UNL1        0.0000
      5  C          9.0940    6.0750   29.4870 C.ar    1  UNL1        0.0000
      6  C          9.4770    5.0300   28.6520 C.ar    1  UNL1        0.0000
      7  H          8.9400    8.1630   29.6460 H       1  UNL1        0.0000
      8  H          8.6780    5.8810   30.4110 H       1  UNL1        0.0000
      9  H          9.2650    4.0580   28.9270 H       1  UNL1        0.0000
     10  C         10.2480    4.1280   26.4580 C.3     1  UNL1        0.0000
     11  H          9.2970    3.9670   25.9950 H       1  UNL1        0.0000
     12  H         10.9730    4.3650   25.7090 H       1  UNL1        0.0000
     13  C         10.6760    2.8580   27.2010 C.3     1  UNL1        0.0000
     14  H         11.4390    2.3580   26.6410 H       1  UNL1        0.0000
     15  H          9.8320    2.2100   27.3140 H       1  UNL1        0.0000
     16  H         11.0560    3.1210   28.1660 H       1  UNL1        0.0000
     17  N         11.5770    6.8790   26.2200 N.am    1  UNL1        0.0000
     18  C         11.3560    7.1410   24.8760 C.2     1  UNL1        0.0000
     19  O         10.2260    7.1820   24.3800 O.2     1  UNL1        0.0000
     20  C         12.5670    7.4100   23.9890 C.3     1  UNL1        0.0000
     21 CL         12.0550    7.4660   22.2900 Cl      1  UNL1        0.0000
     22  H         13.2850    6.6270   24.1200 H       1  UNL1        0.0000
     23  H         13.0060    8.3470   24.2610 H       1  UNL1        0.0000
     24  C         12.8980    6.6680   26.8060 C.3     1  UNL1        0.0000
     25  H         13.6060    6.4950   26.0230 H       1  UNL1        0.0000
     26  H         12.8510    5.8220   27.4600 H       1  UNL1        0.0000
     27  O         13.3050    7.8070   27.5630 O.3     1  UNL1        0.0000
     28  C         14.6760    8.1480   27.4130 C.3     1  UNL1        0.0000
     29  H         15.2830    7.3160   27.6990 H       1  UNL1        0.0000
     30  H         14.9050    8.9880   28.0350 H       1  UNL1        0.0000
     31  H         14.8710    8.3980   26.3910 H       1  UNL1        0.0000
     32  C          9.8010    9.0540   27.2710 C.3     1  UNL1        0.0000
     33  H          8.7910    9.2250   26.9610 H       1  UNL1        0.0000
     34  H         10.4520    9.1550   26.4280 H       1  UNL1        0.0000
     35  C         10.1860   10.0710   28.3400 C.3     1  UNL1        0.0000
     36  H         10.4850   10.9860   27.8710 H       1  UNL1        0.0000
     37  H         10.9960    9.6870   28.9240 H       1  UNL1        0.0000
     38  H          9.3450   10.2560   28.9770 H       1  UNL1        0.0000
@<TRIPOS>BOND
     1     1    10    1
     2     1     2   ar
     3     1     6   ar
     4     2    17    1
     5     2     3   ar
     6     3    32    1
     7     3     4   ar
     8     4     5   ar
     9     4     7    1
    10     5     6   ar
    11     5     8    1
    12     6     9    1
    13    10    12    1
    14    10    11    1
    15    10    13    1
    16    13    14    1
    17    13    15    1
    18    13    16    1
    19    17    18   am
    20    17    24    1
    21    18    20    1
    22    18    19    2
    23    20    21    1
    24    20    22    1
    25    20    23    1
    26    24    25    1
    27    24    26    1
    28    24    27    1
    29    27    28    1
    30    28    31    1
    31    28    29    1
    32    28    30    1
    33    32    34    1
    34    32    33    1
    35    32    35    1
    36    35    36    1
    37    35    37    1
    38    35    38    1
