@<TRIPOS>MOLECULE
UNL
 32 32 0 0 0
SMALL
GASTEIGER

@<TRIPOS>ATOM
      1 CL         15.8770    8.2140   27.4660 Cl      1  UNL1       -0.0143
      2  C         14.2290    7.8950   27.1380 C.2     1  UNL1        0.3112
      3  N         13.9840    7.1490   26.0770 N.2     1  UNL1       -0.3145
      4  C         12.6940    6.9600   25.8530 C.cat   1  UNL1        0.3513
      5  N         12.2820    6.2300   24.7520 N.pl3   1  UNL1       -0.2868
      6  N         11.7280    7.4600   26.6160 N.2     1  UNL1       -0.0273
      7  C         12.1030    8.1640   27.6790 C.cat   1  UNL1        0.3812
      8  N         11.1760    8.6220   28.5980 N.pl3   1  UNL1       -0.2355
      9  N         13.3610    8.4280   27.9840 N.pl3   1  UNL1       -0.1697
     10  H         11.4760    6.4840   24.2490 H       1  UNL1        0.1515
     11  H         11.4240    8.6960   29.5480 H       1  UNL1        0.2447
     12  C         13.0790    5.0700   24.3610 C.3     1  UNL1        0.0199
     13  H         13.7950    4.8510   25.1260 H       1  UNL1        0.0493
     14  C         12.1930    3.8370   24.1810 C.3     1  UNL1       -0.0468
     15  H         12.0390    3.6570   23.1380 H       1  UNL1        0.0247
     16  H         11.2500    4.0030   24.6580 H       1  UNL1        0.0247
     17  H         12.6710    2.9870   24.6240 H       1  UNL1        0.0247
     18  C         13.7820    5.3990   23.0440 C.3     1  UNL1       -0.0468
     19  H         13.6080    4.6120   22.3400 H       1  UNL1        0.0247
     20  H         14.8330    5.4990   23.2150 H       1  UNL1        0.0247
     21  H         13.3940    6.3180   22.6540 H       1  UNL1        0.0247
     22  C          9.8420    8.9950   28.1660 C.3     1  UNL1        0.0635
     23  H          9.7210    8.7920   27.1220 H       1  UNL1        0.0663
     24  C          8.8420    8.1830   28.9930 C.3     1  UNL1       -0.0334
     25  H          9.3460    7.3600   29.4550 H       1  UNL1        0.0261
     26  H          8.0680    7.8130   28.3530 H       1  UNL1        0.0261
     27  H          8.4130    8.8080   29.7490 H       1  UNL1        0.0261
     28  C          9.6070   10.4880   28.3900 C.3     1  UNL1       -0.0334
     29  H          9.1370   10.6360   29.3400 H       1  UNL1        0.0261
     30  H          8.9740   10.8700   27.6160 H       1  UNL1        0.0261
     31  H         10.5440   11.0030   28.3710 H       1  UNL1        0.0261
     32 H          13.6268    8.9677   28.7633 H       1  UNL1        0.2546
@<TRIPOS>BOND
     1     1     2    1
     2     2     3    2
     3     2     9    1
     4     3     4    2
     5     4     5    1
     6     4     6    1
     7     5    10    1
     8     5    12    1
     9     6     7    2
    10     7     9    1
    11     7     8    1
    12     8    22    1
    13     8    11    1
    14     9    32    1
    15    12    18    1
    16    12    14    1
    17    12    13    1
    18    14    15    1
    19    14    17    1
    20    14    16    1
    21    18    19    1
    22    18    21    1
    23    18    20    1
    24    22    23    1
    25    22    28    1
    26    22    24    1
    27    24    26    1
    28    24    25    1
    29    24    27    1
    30    28    30    1
    31    28    31    1
    32    28    29    1
