@<TRIPOS>MOLECULE
UNL
 28 29 0 0 0
SMALL
GASTEIGER

@<TRIPOS>ATOM
      1  C         11.0310    5.8980   25.7310 C.3     1  UNL1        0.0000
      2  H         10.2590    6.6180   25.9120 H       1  UNL1        0.0000
      3  C         10.6260    4.6210   26.4950 C.ar    1  UNL1        0.0000
      4  C         11.0100    3.3340   26.0800 C.ar    1  UNL1        0.0000
      5  C         10.6010    2.1940   26.7790 C.ar    1  UNL1        0.0000
      6  C          9.7950    2.3220   27.9020 C.ar    1  UNL1        0.0000
      7 CL          9.2880    0.9210   28.7600 Cl      1  UNL1        0.0000
      8  C          9.3960    3.5820   28.3340 C.ar    1  UNL1        0.0000
      9  C          9.8100    4.7240   27.6390 C.ar    1  UNL1        0.0000
     10  H         11.6040    3.2270   25.2430 H       1  UNL1        0.0000
     11  H         10.8970    1.2590   26.4590 H       1  UNL1        0.0000
     12  H          8.7960    3.6750   29.1670 H       1  UNL1        0.0000
     13  H          9.5120    5.6560   27.9700 H       1  UNL1        0.0000
     14  C         12.2870    6.5680   26.3190 C.ar    1  UNL1        0.0000
     15  C         12.1270    7.6740   27.1790 C.ar    1  UNL1        0.0000
     16  C         13.2320    8.3220   27.7300 C.ar    1  UNL1        0.0000
     17  C         14.5160    7.8660   27.4430 C.ar    1  UNL1        0.0000
     18 CL         15.8780    8.6590   28.1250 Cl      1  UNL1        0.0000
     19  C         14.6960    6.7680   26.5990 C.ar    1  UNL1        0.0000
     20  C         13.5910    6.1280   26.0370 C.ar    1  UNL1        0.0000
     21  H         11.1780    8.0090   27.4040 H       1  UNL1        0.0000
     22  H         13.0980    9.1380   28.3470 H       1  UNL1        0.0000
     23  H         15.6490    6.4300   26.3920 H       1  UNL1        0.0000
     24  H         13.7320    5.3240   25.4060 H       1  UNL1        0.0000
     25 CL          9.3130    5.3640   23.5390 Cl      1  UNL1        0.0000
     26  C         10.9500    5.7820   24.1590 C.3     1  UNL1        0.0000
     27 CL         12.1080    4.5740   23.4670 Cl      1  UNL1        0.0000
     28 CL         11.4150    7.3710   23.4020 Cl      1  UNL1        0.0000
@<TRIPOS>BOND
     1     1    26    1
     2     1     2    1
     3     1    14    1
     4     1     3    1
     5     3     4   ar
     6     3     9   ar
     7     4    10    1
     8     4     5   ar
     9     5    11    1
    10     5     6   ar
    11     6     8   ar
    12     6     7    1
    13     8     9   ar
    14     8    12    1
    15     9    13    1
    16    14    20   ar
    17    14    15   ar
    18    15    21    1
    19    15    16   ar
    20    16    17   ar
    21    16    22    1
    22    17    19   ar
    23    17    18    1
    24    19    20   ar
    25    19    23    1
    26    20    24    1
    27    25    26    1
    28    26    28    1
    29    26    27    1
