@<TRIPOS>MOLECULE
UNL
 38 38 0 0 0
SMALL
GASTEIGER

@<TRIPOS>ATOM
      1  C         11.4680    4.5910   26.3680 C.ar    1  UNL1        0.0298
      2  C         11.5870    4.2180   25.0230 C.ar    1  UNL1       -0.0404
      3  C         11.1550    2.9700   24.5590 C.ar    1  UNL1       -0.0568
      4  C         10.6140    2.0320   25.4400 C.ar    1  UNL1       -0.0472
      5  C         10.5200    2.3710   26.7910 C.ar    1  UNL1       -0.0568
      6  C         10.9420    3.6280   27.2420 C.ar    1  UNL1       -0.0404
      7  H         12.0080    4.8820   24.3530 H       1  UNL1        0.0636
      8  H         11.2350    2.7400   23.5560 H       1  UNL1        0.0621
      9  H         10.1380    1.6880   27.4650 H       1  UNL1        0.0621
     10  H         10.8630    3.8530   28.2460 H       1  UNL1        0.0636
     11  C         10.1120    0.6990   24.9470 C.3     1  UNL1       -0.0272
     12  H          9.0440    0.7390   24.8980 H       1  UNL1        0.0313
     13  H         10.4680   -0.0380   25.6360 H       1  UNL1        0.0313
     14  C         10.6410    0.3000   23.5660 C.3     1  UNL1       -0.0390
     15  H         11.7080    0.3680   23.5770 H       1  UNL1        0.0274
     16  H         10.2080    0.9680   22.8510 H       1  UNL1        0.0274
     17  C         10.2450   -1.1220   23.1650 C.3     1  UNL1        0.0451
     18  H          9.3420   -1.0830   22.5930 H       1  UNL1        0.0378
     19  H         10.1070   -1.6950   24.0580 H       1  UNL1        0.0378
     20  C         11.3190   -1.7850   22.3390 C.2     1  UNL1        0.3047
     21  O         11.2090   -1.4950   21.0220 O.2     1  UNL1       -0.2510
     22  O         12.2070   -2.5030   22.7760 O.3     1  UNL1       -0.4806
     23  N         11.7920    5.8680   26.8280 N.pl3   1  UNL1       -0.3276
     24  C         10.7990    6.6710   27.5740 C.3     1  UNL1        0.0257
     25  H          9.8350    6.2230   27.4550 H       1  UNL1        0.0475
     26  H         11.0990    6.6890   28.6010 H       1  UNL1        0.0475
     27 CL         11.2880    9.2460   28.3490 Cl      1  UNL1       -0.1238
     28  C         10.7330    8.1220   27.0800 C.3     1  UNL1        0.0383
     29  H         11.3580    8.2290   26.2180 H       1  UNL1        0.0445
     30  H          9.7180    8.3560   26.8330 H       1  UNL1        0.0445
     31  C         12.8560    6.6130   26.1190 C.3     1  UNL1        0.0257
     32  H         12.5370    7.6290   26.0090 H       1  UNL1        0.0475
     33  H         13.0020    6.1180   25.1820 H       1  UNL1        0.0475
     34  C         14.2120    6.6100   26.8330 C.3     1  UNL1        0.0383
     35 CL         14.6650    8.2210   27.4450 Cl      1  UNL1       -0.1238
     36  H         14.9620    6.2810   26.1440 H       1  UNL1        0.0445
     37  H         14.1350    5.9530   27.6750 H       1  UNL1        0.0445
     38 H          12.2542   -2.6836   23.6942 H       1  UNL1        0.2951
@<TRIPOS>BOND
     1     1     2   ar
     2     1    23    1
     3     1     6   ar
     4     2     7    1
     5     2     3   ar
     6     3     8    1
     7     3     4   ar
     8     4    11    1
     9     4     5   ar
    10     5     6   ar
    11     5     9    1
    12     6    10    1
    13    11    14    1
    14    11    12    1
    15    11    13    1
    16    14    16    1
    17    14    17    1
    18    14    15    1
    19    17    20    1
    20    17    18    1
    21    17    19    1
    22    20    21    2
    23    20    22    1
    24    22    38    1
    25    23    31    1
    26    23    24    1
    27    24    28    1
    28    24    25    1
    29    24    26    1
    30    27    28    1
    31    28    29    1
    32    28    30    1
    33    31    33    1
    34    31    32    1
    35    31    34    1
    36    34    36    1
    37    34    35    1
    38    34    37    1
