@<TRIPOS>MOLECULE
UNL
 29 29 0 0 0
SMALL
GASTEIGER

@<TRIPOS>ATOM
      1  N         11.0460    7.3630   26.7690 N.3     1  UNL1        0.0000
      2  P         10.0390    7.2120   28.0510 P.3     1  UNL1        0.0000
      3  N          8.5940    7.9050   27.7560 N.3     1  UNL1        0.0000
      4  C          8.5260    9.3230   27.4640 C.3     1  UNL1        0.0000
      5  C          9.5520   10.2200   28.1650 C.3     1  UNL1        0.0000
      6  C         10.8170    9.5730   28.7120 C.3     1  UNL1        0.0000
      7  O         10.6310    8.2390   29.1500 O.3     1  UNL1        0.0000
      8  O          9.9250    5.8220   28.6090 O.2     1  UNL1        0.0000
      9  H          8.0140    7.7440   28.5800 H       1  UNL1        0.0000
     10  H          7.5520    9.6650   27.7440 H       1  UNL1        0.0000
     11  H          8.7470    9.4060   26.4200 H       1  UNL1        0.0000
     12  H          9.0540   10.6880   28.9870 H       1  UNL1        0.0000
     13  H          9.9010   10.8750   27.3960 H       1  UNL1        0.0000
     14  H         11.1630   10.1550   29.5410 H       1  UNL1        0.0000
     15  H         11.5250    9.5430   27.9110 H       1  UNL1        0.0000
     16  C         12.3060    6.6050   26.8760 C.3     1  UNL1        0.0000
     17  H         12.2400    5.9650   27.7310 H       1  UNL1        0.0000
     18  H         12.4180    6.0640   25.9600 H       1  UNL1        0.0000
     19 CL         14.9820    6.6460   26.3620 Cl      1  UNL1        0.0000
     20  C         13.5530    7.4780   27.0250 C.3     1  UNL1        0.0000
     21  H         13.4040    8.3970   26.4970 H       1  UNL1        0.0000
     22  H         13.7180    7.6720   28.0640 H       1  UNL1        0.0000
     23  C         10.5520    7.5030   25.3980 C.3     1  UNL1        0.0000
     24  H         10.6550    8.5320   25.1230 H       1  UNL1        0.0000
     25  H          9.5450    7.1420   25.4290 H       1  UNL1        0.0000
     26  C         11.2390    6.6670   24.3210 C.3     1  UNL1        0.0000
     27 CL         12.3130    7.7070   23.3480 Cl      1  UNL1        0.0000
     28  H         10.5000    6.2270   23.6860 H       1  UNL1        0.0000
     29  H         11.8180    5.8960   24.7860 H       1  UNL1        0.0000
@<TRIPOS>BOND
     1     1    23    1
     2     1    16    1
     3     1     2    1
     4     2     3    1
     5     2     8    2
     6     2     7    1
     7     3     4    1
     8     3     9    1
     9     4    11    1
    10     4    10    1
    11     4     5    1
    12     5    13    1
    13     5     6    1
    14     5    12    1
    15     6    15    1
    16     6     7    1
    17     6    14    1
    18    16    18    1
    19    16    20    1
    20    16    17    1
    21    19    20    1
    22    20    21    1
    23    20    22    1
    24    23    26    1
    25    23    24    1
    26    23    25    1
    27    26    27    1
    28    26    28    1
    29    26    29    1
