@<TRIPOS>MOLECULE
UNL
 21 20 0 0 0
SMALL
GASTEIGER

@<TRIPOS>ATOM
      1  O         10.8280    6.3330   26.2020 O.2     1  UNL1        0.0000
      2  C         11.8730    6.9240   26.4860 C.2     1  UNL1        0.0000
      3  N         11.9260    7.8700   27.5060 N.am    1  UNL1        0.0000
      4  N         13.0220    6.6600   25.7930 N.am    1  UNL1        0.0000
      5  H         13.8230    7.1960   25.9940 H       1  UNL1        0.0000
      6  C         10.6890    8.1890   28.2200 C.3     1  UNL1        0.0000
      7  H         10.9240    8.3140   29.2560 H       1  UNL1        0.0000
      8  H         10.0150    7.3790   28.0390 H       1  UNL1        0.0000
      9  C          9.9890    9.4570   27.7330 C.3     1  UNL1        0.0000
     10 CL         10.3140   10.8480   28.7990 Cl      1  UNL1        0.0000
     11  H          8.9340    9.2820   27.7070 H       1  UNL1        0.0000
     12  H         10.3660    9.6920   26.7600 H       1  UNL1        0.0000
     13  C         13.1190    5.6270   24.7770 C.3     1  UNL1        0.0000
     14  H         12.4030    5.8450   24.0120 H       1  UNL1        0.0000
     15  H         12.9360    4.6980   25.2760 H       1  UNL1        0.0000
     16  C         14.4920    5.4980   24.1200 C.3     1  UNL1        0.0000
     17 CL         15.8080    5.7600   25.2960 Cl      1  UNL1        0.0000
     18  H         14.5740    6.2250   23.3390 H       1  UNL1        0.0000
     19  H         14.5850    4.5060   23.7290 H       1  UNL1        0.0000
     20  N         13.0510    8.6010   27.9220 N.2     1  UNL1        0.0000
     21  O         14.1000    7.9680   28.0520 O.2     1  UNL1        0.0000
@<TRIPOS>BOND
     1     1     2    2
     2     2     4   am
     3     2     3   am
     4     3    20    1
     5     3     6    1
     6     4    13    1
     7     4     5    1
     8     6     9    1
     9     6     8    1
    10     6     7    1
    11     9    12    1
    12     9    11    1
    13     9    10    1
    14    13    14    1
    15    13    16    1
    16    13    15    1
    17    16    18    1
    18    16    19    1
    19    16    17    1
    20    20    21    2
