@<TRIPOS>MOLECULE
UNL
 15 15 0 0 0
SMALL
GASTEIGER

@<TRIPOS>ATOM
      1  C         13.3450    7.5000   26.1480 C.3     1  UNL1        0.1849
      2  C         14.3470    7.3930   27.2700 C.3     1  UNL1        0.0945
      3  O         12.9500    7.5150   27.5410 O.3     1  UNL1       -0.3557
      4  H         13.2090    8.1390   25.3000 H       1  UNL1        0.0750
      5  H         15.1380    6.7040   27.4780 H       1  UNL1        0.0626
      6  O         14.4040    5.5320   24.6640 O.3     1  UNL1       -0.3223
      7  P         12.9810    6.0350   25.1880 P.3     1  UNL1        0.3587
      8  O         12.3070    6.5660   23.8420 O.2     1  UNL1       -0.2560
      9  O         12.1730    5.1250   26.0380 O.3     1  UNL1       -0.3223
     10  C         15.1740    8.5590   27.6690 C.3     1  UNL1       -0.0356
     11  H         14.7190    9.4580   27.3090 H       1  UNL1        0.0255
     12  H         16.1540    8.4620   27.2510 H       1  UNL1        0.0255
     13  H         15.2430    8.5980   28.7370 H       1  UNL1        0.0255
     14 H          14.2870    4.7313   24.1291 H       1  UNL1        0.2198
     15 H          11.9613    4.3201   25.5397 H       1  UNL1        0.2198
@<TRIPOS>BOND
     1     1     7    1
     2     1     4    1
     3     1     2    1
     4     1     3    1
     5     2     5    1
     6     2     3    1
     7     2    10    1
     8     6     7    1
     9     6    14    1
    10     7     8    2
    11     7     9    1
    12     9    15    1
    13    10    12    1
    14    10    11    1
    15    10    13    1
