@<TRIPOS>MOLECULE
UNL
 21 22 0 0 0
SMALL
GASTEIGER

@<TRIPOS>ATOM
      1  O          8.9780    4.5900   28.8270 O.2     1  UNL1        0.0000
      2  C          9.8650    5.1320   28.1780 C.2     1  UNL1        0.0000
      3  C         10.6860    4.3710   27.1980 C.2     1  UNL1        0.0000
      4  C         11.6470    4.9900   26.4990 C.2     1  UNL1        0.0000
      5  C         11.9370    6.4300   26.6360 C.2     1  UNL1        0.0000
      6  C         11.1410    7.2000   27.6060 C.ar    1  UNL1        0.0000
      7  C         11.3900    8.5670   27.7800 C.ar    1  UNL1        0.0000
      8  C         10.6500    9.2990   28.7120 C.ar    1  UNL1        0.0000
      9  C          9.6610    8.6700   29.4670 C.ar    1  UNL1        0.0000
     10  C          9.4060    7.3090   29.2890 C.ar    1  UNL1        0.0000
     11  C         10.1470    6.5710   28.3560 C.ar    1  UNL1        0.0000
     12  O         12.8130    6.9510   25.9590 O.2     1  UNL1        0.0000
     13  H         12.2090    4.4350   25.8340 H       1  UNL1        0.0000
     14  H         12.1210    9.0340   27.2190 H       1  UNL1        0.0000
     15  H         10.8360   10.3060   28.8400 H       1  UNL1        0.0000
     16  H          9.1190    9.2100   30.1580 H       1  UNL1        0.0000
     17  H          8.6720    6.8460   29.8450 H       1  UNL1        0.0000
     18  C         10.3990    2.9120   27.0190 C.3     1  UNL1        0.0000
     19  H          9.9780    2.5190   27.9200 H       1  UNL1        0.0000
     20  H         11.3080    2.3950   26.7940 H       1  UNL1        0.0000
     21  H          9.7060    2.7810   26.2140 H       1  UNL1        0.0000
@<TRIPOS>BOND
     1     1     2    2
     2     2     3    1
     3     2    11    1
     4     3     4    2
     5     3    18    1
     6     4    13    1
     7     4     5    1
     8     5    12    2
     9     5     6    1
    10     6     7   ar
    11     6    11   ar
    12     7    14    1
    13     7     8   ar
    14     8    15    1
    15     8     9   ar
    16     9    10   ar
    17     9    16    1
    18    10    11   ar
    19    10    17    1
    20    18    21    1
    21    18    20    1
    22    18    19    1
