@<TRIPOS>MOLECULE
UNL
 18 18 0 0 0
SMALL
GASTEIGER

@<TRIPOS>ATOM
      1  O         12.7060    6.7010   20.4790 O.2     1  UNL1        0.0000
      2  C         12.9050    6.6680   21.6840 C.2     1  UNL1        0.0000
      3  C         12.1020    7.4690   22.6210 C.2     1  UNL1        0.0000
      4  C         12.2420    7.3510   23.9460 C.2     1  UNL1        0.0000
      5  C         13.9780    5.8420   22.2620 C.2     1  UNL1        0.0000
      6  C         14.1210    5.7240   23.5860 C.2     1  UNL1        0.0000
      7  C         13.2020    6.3870   24.5540 C.2     1  UNL1        0.0000
      8  N         13.3470    6.0380   25.7920 N.am    1  UNL1        0.0000
      9  H         11.4120    8.1380   22.2460 H       1  UNL1        0.0000
     10  H         11.6690    7.9460   24.5650 H       1  UNL1        0.0000
     11  H         14.6310    5.3450   21.6350 H       1  UNL1        0.0000
     12  H         14.8980    5.1510   23.9520 H       1  UNL1        0.0000
     13  C         12.5540    6.5090   26.8080 C.2     1  UNL1        0.0000
     14  O         12.7480    7.5130   27.4890 O.2     1  UNL1        0.0000
     15  C         11.3080    5.6870   27.0070 C.3     1  UNL1        0.0000
     16  H         11.3420    4.8280   26.3710 H       1  UNL1        0.0000
     17  H         10.4490    6.2770   26.7630 H       1  UNL1        0.0000
     18  H         11.2460    5.3730   28.0280 H       1  UNL1        0.0000
@<TRIPOS>BOND
     1     1     2    2
     2     2     5    1
     3     2     3    1
     4     3     9    1
     5     3     4    2
     6     4     7    1
     7     4    10    1
     8     5    11    1
     9     5     6    2
    10     6    12    1
    11     6     7    1
    12     7     8    2
    13     8    13    1
    14    13    15    1
    15    13    14    2
    16    15    16    1
    17    15    17    1
    18    15    18    1
