@<TRIPOS>MOLECULE
UNL
 69 73 0 0 0
SMALL
GASTEIGER

@<TRIPOS>ATOM
      1  C         14.3490    8.0730   27.9700 C.3     1  UNL1        0.0000
      2  C         15.1230    7.4920   26.7900 C.3     1  UNL1        0.0000
      3  C         14.3650    6.3200   26.1780 C.3     1  UNL1        0.0000
      4  C         12.9150    6.6600   25.7650 C.3     1  UNL1        0.0000
      5  C         12.2240    7.4630   26.8500 C.3     1  UNL1        0.0000
      6  C         10.7300    7.5570   26.8020 C.3     1  UNL1        0.0000
      7  C         10.0160    6.8940   25.6730 C.3     1  UNL1        0.0000
      8  C         10.5870    5.5150   25.2980 C.3     1  UNL1        0.0000
      9  C         12.1380    5.3550   25.4350 C.3     1  UNL1        0.0000
     10  C         12.7730    4.5760   24.2670 C.3     1  UNL1        0.0000
     11  C         11.9950    3.2960   24.0030 C.3     1  UNL1        0.0000
     12  C         10.5970    3.6210   23.5060 C.3     1  UNL1        0.0000
     13  C         10.0290    4.9840   23.9590 C.3     1  UNL1        0.0000
     14  C          8.5060    4.8010   23.9410 C.3     1  UNL1        0.0000
     15  C          8.2250    3.3770   23.4680 C.3     1  UNL1        0.0000
     16  C          9.4980    2.5570   23.7220 C.3     1  UNL1        0.0000
     17  O         11.3950    6.7070   27.7490 O.3     1  UNL1        0.0000
     18  C         12.9910    8.5760   27.4950 C.3     1  UNL1        0.0000
     19  H         14.2030    7.3150   28.7100 H       1  UNL1        0.0000
     20  H         16.0790    7.1540   27.1290 H       1  UNL1        0.0000
     21  H         15.2410    8.2530   26.0470 H       1  UNL1        0.0000
     22  H         14.3340    5.5270   26.8950 H       1  UNL1        0.0000
     23  H         14.8860    6.0450   25.2850 H       1  UNL1        0.0000
     24  H         12.9350    7.2670   24.8840 H       1  UNL1        0.0000
     25  H         10.0180    8.3540   26.8510 H       1  UNL1        0.0000
     26  H         10.0820    7.5300   24.8150 H       1  UNL1        0.0000
     27  H          9.0080    6.7370   25.9920 H       1  UNL1        0.0000
     28  H         10.2170    4.8680   26.0670 H       1  UNL1        0.0000
     29  H         12.2470    4.7520   26.3120 H       1  UNL1        0.0000
     30  H         13.7840    4.3320   24.5130 H       1  UNL1        0.0000
     31  H         12.7480    5.1870   23.3880 H       1  UNL1        0.0000
     32  H         11.9240    2.7330   24.9110 H       1  UNL1        0.0000
     33  H         12.5060    2.7260   23.2560 H       1  UNL1        0.0000
     34  H         10.8150    3.6470   22.4590 H       1  UNL1        0.0000
     35  H         10.3420    5.7620   23.2940 H       1  UNL1        0.0000
     36  H          8.0600    5.5040   23.2700 H       1  UNL1        0.0000
     37  H          8.0930    4.9650   24.9150 H       1  UNL1        0.0000
     38  H          7.9910    3.3770   22.4240 H       1  UNL1        0.0000
     39  H          7.3920    2.9580   23.9920 H       1  UNL1        0.0000
     40  H          9.6410    1.7260   23.0620 H       1  UNL1        0.0000
     41  H         13.1350    9.3650   26.7840 H       1  UNL1        0.0000
     42  H         12.4390    8.9400   28.3350 H       1  UNL1        0.0000
     43  O         15.0880    9.1520   28.5350 O.3     1  UNL1        0.0000
     44  H         15.5030    8.8600   29.3620 H       1  UNL1        0.0000
     45  C          9.5070    1.6620   25.0090 C.3     1  UNL1        0.0000
     46  H         10.5390    1.4550   25.2050 H       1  UNL1        0.0000
     47  C          8.7340    0.3610   24.7410 C.3     1  UNL1        0.0000
     48  H          8.7100    0.1720   23.6880 H       1  UNL1        0.0000
     49  H          7.7320    0.4590   25.1070 H       1  UNL1        0.0000
     50  H          9.2180   -0.4510   25.2390 H       1  UNL1        0.0000
     51  C          9.0140    2.3420   26.3000 C.3     1  UNL1        0.0000
     52  H          8.1870    1.7690   26.6660 H       1  UNL1        0.0000
     53  H          8.7870    3.3460   26.0030 H       1  UNL1        0.0000
     54  C         10.0090    2.5000   27.4580 C.3     1  UNL1        0.0000
     55  H         10.9980    2.4640   27.0520 H       1  UNL1        0.0000
     56  H          9.7980    1.7020   28.1410 H       1  UNL1        0.0000
     57  C          9.8720    3.7980   28.2650 C.3     1  UNL1        0.0000
     58  H         10.2220    4.6020   27.6510 H       1  UNL1        0.0000
     59  H         10.4460    3.6440   29.1560 H       1  UNL1        0.0000
     60  C          8.4450    4.1520   28.7430 C.3     1  UNL1        0.0000
     61  H          7.7820    3.9430   27.9300 H       1  UNL1        0.0000
     62  C          7.9830    3.3010   29.9260 C.3     1  UNL1        0.0000
     63  H          6.9820    2.9650   29.7540 H       1  UNL1        0.0000
     64  H          8.0130    3.8870   30.8210 H       1  UNL1        0.0000
     65  H          8.6300    2.4550   30.0310 H       1  UNL1        0.0000
     66  C          8.3800    5.6360   29.1180 C.3     1  UNL1        0.0000
     67  H          9.3320    6.0910   28.9410 H       1  UNL1        0.0000
     68  H          8.1260    5.7300   30.1530 H       1  UNL1        0.0000
     69  H          7.6350    6.1210   28.5220 H       1  UNL1        0.0000
@<TRIPOS>BOND
     1     1     2    1
     2     1    18    1
     3     1    43    1
     4     1    19    1
     5     2    21    1
     6     2     3    1
     7     2    20    1
     8     3    23    1
     9     3     4    1
    10     3    22    1
    11     4    24    1
    12     4     9    1
    13     4     5    1
    14     5     6    1
    15     5    18    1
    16     5    17    1
    17     6     7    1
    18     6    25    1
    19     6    17    1
    20     7    26    1
    21     7     8    1
    22     7    27    1
    23     8    13    1
    24     8     9    1
    25     8    28    1
    26     9    10    1
    27     9    29    1
    28    10    31    1
    29    10    11    1
    30    10    30    1
    31    11    33    1
    32    11    12    1
    33    11    32    1
    34    12    34    1
    35    12    16    1
    36    12    13    1
    37    13    35    1
    38    13    14    1
    39    14    36    1
    40    14    15    1
    41    14    37    1
    42    15    38    1
    43    15    16    1
    44    15    39    1
    45    16    40    1
    46    16    45    1
    47    18    41    1
    48    18    42    1
    49    43    44    1
    50    45    47    1
    51    45    46    1
    52    45    51    1
    53    47    48    1
    54    47    49    1
    55    47    50    1
    56    51    53    1
    57    51    52    1
    58    51    54    1
    59    54    55    1
    60    54    56    1
    61    54    57    1
    62    57    58    1
    63    57    60    1
    64    57    59    1
    65    60    61    1
    66    60    66    1
    67    60    62    1
    68    62    63    1
    69    62    65    1
    70    62    64    1
    71    66    69    1
    72    66    67    1
    73    66    68    1
