@<TRIPOS>MOLECULE
UNL
 21 22 0 0 0
SMALL
GASTEIGER

@<TRIPOS>ATOM
      1  N         11.3720    7.4920   26.1060 N.ar    1  UNL1        0.0000
      2  C         11.8530    7.2080   24.8350 C.ar    1  UNL1        0.0000
      3  N         11.4190    7.6950   23.6540 N.ar    1  UNL1        0.0000
      4  C         12.1290    7.1990   22.6250 C.ar    1  UNL1        0.0000
      5  N         13.1510    6.3210   22.6620 N.ar    1  UNL1        0.0000
      6  C         13.5640    5.8680   23.8660 C.ar    1  UNL1        0.0000
      7  C         12.8940    6.3120   25.0200 C.ar    1  UNL1        0.0000
      8  N         13.0690    6.0190   26.3510 N.ar    1  UNL1        0.0000
      9  C         12.1610    6.7460   26.9670 C.ar    1  UNL1        0.0000
     10  H         11.8580    7.5340   21.6870 H       1  UNL1        0.0000
     11  H         12.0480    6.7590   27.9930 H       1  UNL1        0.0000
     12  C         10.2750    9.0790   27.6110 C.2     1  UNL1        0.0000
     13  C         10.3270    8.3360   26.4960 C.2     1  UNL1        0.0000
     14  H         11.0620    9.0620   28.2770 H       1  UNL1        0.0000
     15  H          9.5160    8.3920   25.8610 H       1  UNL1        0.0000
     16  O          9.1710   11.0610   28.3350 O.2     1  UNL1        0.0000
     17  C          9.0930    9.9230   27.8910 C.2     1  UNL1        0.0000
     18  H          8.1560    9.5340   27.7020 H       1  UNL1        0.0000
     19  N         14.6260    4.9750   23.8970 N.pl3   1  UNL1        0.0000
     20  H         14.6240    4.1870   23.3040 H       1  UNL1        0.0000
     21  H         15.3800    5.1270   24.5100 H       1  UNL1        0.0000
@<TRIPOS>BOND
     1     1     2   ar
     2     1    13    1
     3     1     9   ar
     4     2     3   ar
     5     2     7   ar
     6     3     4   ar
     7     4    10    1
     8     4     5   ar
     9     5     6   ar
    10     6    19    1
    11     6     7   ar
    12     7     8   ar
    13     8     9   ar
    14     9    11    1
    15    12    13    2
    16    12    17    1
    17    12    14    1
    18    13    15    1
    19    16    17    2
    20    17    18    1
    21    19    20    1
    22    19    21    1
