@<TRIPOS>MOLECULE
UNL
 53 52 0 0 0
SMALL
GASTEIGER

@<TRIPOS>ATOM
      1  C         11.8000    8.0620   27.4220 C.3     1  UNL1        0.0736
      2  H         11.4060    8.5790   26.5720 H       1  UNL1        0.0638
      3  C         13.2310    7.7030   27.1450 C.2     1  UNL1       -0.0559
      4  C         13.5690    6.6810   26.3460 C.2     1  UNL1       -0.0636
      5  H         13.9800    8.2610   27.5830 H       1  UNL1        0.0597
      6  H         12.7990    6.1320   25.9310 H       1  UNL1        0.0615
      7  C         14.9090    6.2830   26.0190 C.2     1  UNL1       -0.0659
      8  C         15.2130    5.5660   24.9230 C.2     1  UNL1       -0.0840
      9  H         15.6740    6.5590   26.6540 H       1  UNL1        0.0614
     10  H         16.2100    5.3580   24.7590 H       1  UNL1        0.0572
     11  C         14.2290    5.0380   23.9130 C.3     1  UNL1       -0.0345
     12  H         13.2440    5.0890   24.3280 H       1  UNL1        0.0307
     13  H         14.4960    4.0280   23.6830 H       1  UNL1        0.0307
     14  C         14.2600    5.8460   22.6150 C.3     1  UNL1       -0.0496
     15  H         14.7010    5.2530   21.8400 H       1  UNL1        0.0268
     16  H         14.8400    6.7330   22.7720 H       1  UNL1        0.0268
     17  C         12.8460    6.2460   22.2010 C.3     1  UNL1       -0.0530
     18  H         12.2040    5.3940   22.2940 H       1  UNL1        0.0265
     19  H         12.8800    6.5920   21.1890 H       1  UNL1        0.0265
     20  C         12.3000    7.3730   23.0720 C.3     1  UNL1       -0.0559
     21  H         12.1030    8.2260   22.4580 H       1  UNL1        0.0263
     22  H         13.0270    7.6090   23.8210 H       1  UNL1        0.0263
     23  C         11.0130    6.9490   23.7620 C.3     1  UNL1       -0.0653
     24  H         11.2470    6.4610   24.6850 H       1  UNL1        0.0230
     25  H         10.4750    6.2740   23.1290 H       1  UNL1        0.0230
     26  H         10.4110    7.8110   23.9560 H       1  UNL1        0.0230
     27  C         10.9250    6.8200   27.6300 C.3     1  UNL1       -0.0232
     28  H         10.4210    6.5940   26.7140 H       1  UNL1        0.0293
     29  H         11.5620    6.0130   27.9300 H       1  UNL1        0.0293
     30  C          9.8860    7.0340   28.7250 C.3     1  UNL1       -0.0504
     31  H         10.3840    7.2450   29.6480 H       1  UNL1        0.0266
     32  H          9.2570    7.8540   28.4500 H       1  UNL1        0.0266
     33  C          9.0250    5.7860   28.8920 C.3     1  UNL1       -0.0530
     34  H          9.2310    5.3390   29.8410 H       1  UNL1        0.0265
     35  H          7.9940    6.0640   28.8340 H       1  UNL1        0.0265
     36  C          9.3320    4.7830   27.7870 C.3     1  UNL1       -0.0530
     37  H          8.5430    4.8090   27.0630 H       1  UNL1        0.0265
     38  H         10.2650    5.0480   27.3370 H       1  UNL1        0.0265
     39  C          9.4460    3.3680   28.3460 C.3     1  UNL1       -0.0526
     40  H          9.7390    3.4180   29.3740 H       1  UNL1        0.0265
     41  H          8.4960    2.8820   28.2580 H       1  UNL1        0.0265
     42  C         10.4850    2.5710   27.5640 C.3     1  UNL1       -0.0430
     43  H         11.2280    2.2070   28.2420 H       1  UNL1        0.0270
     44  H          9.9880    1.7580   27.0750 H       1  UNL1        0.0270
     45  C         11.1610    3.4310   26.5000 C.3     1  UNL1        0.0448
     46  H         10.6320    4.3580   26.4150 H       1  UNL1        0.0377
     47  H         12.1760    3.5970   26.7970 H       1  UNL1        0.0377
     48  O         11.2300    1.3940   25.2660 O.3     1  UNL1       -0.4806
     49  C         11.1670    2.7420   25.1530 C.2     1  UNL1        0.3047
     50  O         11.1210    3.3010   24.0740 O.2     1  UNL1       -0.2510
     51  O         11.7560    8.8970   28.5730 O.3     1  UNL1       -0.3878
     52  H         12.2680    8.4880   29.2890 H       1  UNL1        0.2102
     53 H          11.2643    0.9960   26.1136 H       1  UNL1        0.2951
@<TRIPOS>BOND
     1     1     2    1
     2     1     3    1
     3     1    27    1
     4     1    51    1
     5     3     4    2
     6     3     5    1
     7     4     6    1
     8     4     7    1
     9     7     8    2
    10     7     9    1
    11     8    11    1
    12     8    10    1
    13    11    14    1
    14    11    13    1
    15    11    12    1
    16    14    15    1
    17    14    17    1
    18    14    16    1
    19    17    19    1
    20    17    18    1
    21    17    20    1
    22    20    21    1
    23    20    23    1
    24    20    22    1
    25    23    25    1
    26    23    26    1
    27    23    24    1
    28    27    28    1
    29    27    29    1
    30    27    30    1
    31    30    32    1
    32    30    33    1
    33    30    31    1
    34    33    36    1
    35    33    35    1
    36    33    34    1
    37    36    37    1
    38    36    38    1
    39    36    39    1
    40    39    42    1
    41    39    41    1
    42    39    40    1
    43    42    45    1
    44    42    44    1
    45    42    43    1
    46    45    49    1
    47    45    46    1
    48    45    47    1
    49    48    49    1
    50    48    53    1
    51    49    50    2
    52    51    52    1
