@<TRIPOS>MOLECULE
UNL
 18 19 0 0 0
SMALL
GASTEIGER

@<TRIPOS>ATOM
      1  O         14.7300    4.7140   23.5230 O.2     1  UNL1        0.0000
      2  C         14.4100    5.4200   24.4690 C.2     1  UNL1        0.0000
      3  C         15.4510    5.9800   25.4460 C.2     1  UNL1        0.0000
      4  C         14.9690    6.8280   26.5590 C.2     1  UNL1        0.0000
      5  C         13.6630    7.0720   26.6690 C.2     1  UNL1        0.0000
      6  N         13.0090    7.8170   27.5980 N.pl3   1  UNL1        0.0000
      7  C         11.5710    7.8520   27.4380 C.3     1  UNL1        0.0000
      8  C         11.3190    7.0090   26.1730 C.3     1  UNL1        0.0000
      9  C         12.6880    6.5370   25.7480 C.2     1  UNL1        0.0000
     10  C         12.9900    5.7600   24.7050 C.2     1  UNL1        0.0000
     11  O         16.6430    5.7390   25.3160 O.2     1  UNL1        0.0000
     12  H         15.6360    7.2250   27.2410 H       1  UNL1        0.0000
     13  H         13.4750    8.2960   28.3220 H       1  UNL1        0.0000
     14  H         11.2260    8.8560   27.3000 H       1  UNL1        0.0000
     15  H         11.0500    7.4770   28.2950 H       1  UNL1        0.0000
     16  H         10.8700    7.6030   25.4050 H       1  UNL1        0.0000
     17  H         10.6500    6.1940   26.3560 H       1  UNL1        0.0000
     18  H         12.2490    5.4070   24.0780 H       1  UNL1        0.0000
@<TRIPOS>BOND
     1     1     2    2
     2     2    10    1
     3     2     3    1
     4     3    11    2
     5     3     4    1
     6     4     5    2
     7     4    12    1
     8     5     9    1
     9     5     6    1
    10     6     7    1
    11     6    13    1
    12     7     8    1
    13     7    14    1
    14     7    15    1
    15     8    16    1
    16     8     9    1
    17     8    17    1
    18     9    10    2
    19    10    18    1
