@<TRIPOS>MOLECULE
UNL
 114 118 0 0 0
SMALL
GASTEIGER

@<TRIPOS>ATOM
      1  C         10.6480    1.3900   24.5600 C.3     1  UNL1        0.0000
      2  C         11.7890    2.4360   24.5270 C.3     1  UNL1        0.0000
      3  C         11.2570    3.8490   24.9870 C.3     1  UNL1        0.0000
      4  C         10.3370    3.8170   26.2980 C.3     1  UNL1        0.0000
      5  C          8.8230    4.1820   25.8870 C.3     1  UNL1        0.0000
      6  C          8.4910    5.5730   25.2270 C.3     1  UNL1        0.0000
      7  C          8.0410    5.5600   23.7370 C.3     1  UNL1        0.0000
      8  C          8.7840    4.7710   22.6800 C.2     1  UNL1        0.0000
      9  C          9.9880    5.0370   22.1330 C.2     1  UNL1        0.0000
     10  C         10.9840    6.0530   22.6250 C.3     1  UNL1        0.0000
     11  O         11.3890    6.8710   21.5020 O.3     1  UNL1        0.0000
     12  C         12.2370    5.4530   23.2220 C.3     1  UNL1        0.0000
     13  C         13.3700    6.0920   22.4690 C.3     1  UNL1        0.0000
     14  C         12.7520    6.9810   21.4600 C.2     1  UNL1        0.0000
     15  O         13.3770    7.7080   20.7100 O.2     1  UNL1        0.0000
     16  O         13.0570    4.6990   22.3060 O.3     1  UNL1        0.0000
     17  C         12.3300    4.9750   24.6730 C.3     1  UNL1        0.0000
     18  C         10.3880    2.3530   26.9310 C.3     1  UNL1        0.0000
     19  C         10.0700    1.2160   25.9600 C.3     1  UNL1        0.0000
     20  H          9.8430    1.7500   23.9540 H       1  UNL1        0.0000
     21  H         12.1070    2.5340   23.5100 H       1  UNL1        0.0000
     22  H         10.4550    4.2250   24.3860 H       1  UNL1        0.0000
     23  H          8.6340    3.4800   25.1020 H       1  UNL1        0.0000
     24  H          7.6430    5.8410   25.8200 H       1  UNL1        0.0000
     25  H          8.0510    6.5800   23.4120 H       1  UNL1        0.0000
     26  H          7.1070    5.0410   23.7900 H       1  UNL1        0.0000
     27  H         10.2510    4.4930   21.2960 H       1  UNL1        0.0000
     28  H         10.4940    6.6070   23.3980 H       1  UNL1        0.0000
     29  H         13.2550    4.4780   24.8760 H       1  UNL1        0.0000
     30  H         11.4090    2.2430   27.2280 H       1  UNL1        0.0000
     31  H         10.4600    0.3080   26.3710 H       1  UNL1        0.0000
     32  H          9.0060    1.2050   25.8460 H       1  UNL1        0.0000
     33  C         10.8040    4.7350   27.4480 C.3     1  UNL1        0.0000
     34  H          9.9560    5.2180   27.8870 H       1  UNL1        0.0000
     35  H         11.4760    5.4730   27.0640 H       1  UNL1        0.0000
     36  H         11.3050    4.1500   28.1910 H       1  UNL1        0.0000
     37  C         14.6970    6.3690   23.0790 C.3     1  UNL1        0.0000
     38  H         15.2650    7.0010   22.4270 H       1  UNL1        0.0000
     39  H         15.2210    5.4480   23.2260 H       1  UNL1        0.0000
     40  H         14.5620    6.8570   24.0210 H       1  UNL1        0.0000
     41  C         13.0590    1.9810   25.2650 C.3     1  UNL1        0.0000
     42  H         13.6320    2.8380   25.5520 H       1  UNL1        0.0000
     43  H         13.6450    1.3620   24.6180 H       1  UNL1        0.0000
     44  H         12.7860    1.4250   26.1380 H       1  UNL1        0.0000
     45  C          8.1240    3.5190   22.1970 C.2     1  UNL1        0.0000
     46  N          8.8260    2.5290   21.7590 N.2     1  UNL1        0.0000
     47  H          7.0960    3.4460   22.2160 H       1  UNL1        0.0000
     48  O          7.9860    1.4880   21.3280 O.2     1  UNL1        0.0000
     49  C          8.4180    1.0450   20.0280 C.3     1  UNL1        0.0000
     50  H          7.8590    0.1740   19.7540 H       1  UNL1        0.0000
     51  H          9.4650    0.8250   20.0800 H       1  UNL1        0.0000
     52  C          8.2140    2.0850   19.0080 C.1     1  UNL1        0.0000
     53  C          8.0080    2.9160   18.1630 C.1     1  UNL1        0.0000
     54  H          7.8370    3.6030   17.4650 H       1  UNL1        0.0000
     55  O          9.4930    2.2360   28.0680 O.3     1  UNL1        0.0000
     56  C          8.9250    1.0230   28.3070 C.2     1  UNL1        0.0000
     57  O          8.0310    0.5150   27.6450 O.2     1  UNL1        0.0000
     58  C          9.5200    0.3980   29.5330 C.3     1  UNL1        0.0000
     59  H          8.7460    0.2000   30.2450 H       1  UNL1        0.0000
     60  H         10.2370    1.0670   29.9630 H       1  UNL1        0.0000
     61  H         10.0030   -0.5190   29.2670 H       1  UNL1        0.0000
     62  O         12.2740    6.1450   25.5060 O.3     1  UNL1        0.0000
     63  C         13.4010    6.4440   26.2260 C.2     1  UNL1        0.0000
     64  O         14.3980    5.7430   26.3010 O.2     1  UNL1        0.0000
     65  C         13.2850    7.7860   26.8870 C.3     1  UNL1        0.0000
     66  H         14.1960    8.0100   27.4020 H       1  UNL1        0.0000
     67  H         12.4750    7.7710   27.5840 H       1  UNL1        0.0000
     68  H         13.1030    8.5350   26.1430 H       1  UNL1        0.0000
     69  O          9.5290    6.5740   25.3580 O.3     1  UNL1        0.0000
     70  C          9.1100    7.8580   25.5800 C.2     1  UNL1        0.0000
     71  O          8.1340    8.3770   25.0560 O.2     1  UNL1        0.0000
     72  C         10.0480    8.6040   26.5010 C.3     1  UNL1        0.0000
     73  H         10.6570    9.2570   25.9120 H       1  UNL1        0.0000
     74  H         10.6330    7.8760   27.0210 H       1  UNL1        0.0000
     75  C          9.3140    9.4370   27.5500 C.3     1  UNL1        0.0000
     76  H          8.7030    8.7820   28.1350 H       1  UNL1        0.0000
     77  H          8.7360   10.1680   27.0220 H       1  UNL1        0.0000
     78  C         10.2440   10.1940   28.4860 C.3     1  UNL1        0.0000
     79  H          9.7650   10.3260   29.4340 H       1  UNL1        0.0000
     80  H         10.4710   11.1520   28.0640 H       1  UNL1        0.0000
     81  H         11.1480    9.6380   28.6160 H       1  UNL1        0.0000
     82  O          7.9830    4.0750   27.0830 O.3     1  UNL1        0.0000
     83  C          8.0340    5.1310   27.9460 C.2     1  UNL1        0.0000
     84  O          7.9830    6.3050   27.6200 O.2     1  UNL1        0.0000
     85  C          8.2020    4.6710   29.3590 C.3     1  UNL1        0.0000
     86  H          7.3020    4.1970   29.6900 H       1  UNL1        0.0000
     87  H          8.4130    5.5120   29.9850 H       1  UNL1        0.0000
     88  H          9.0120    3.9740   29.4130 H       1  UNL1        0.0000
     89  O         11.1170    0.1350   24.0030 O.3     1  UNL1        0.0000
     90  O          9.0730   -0.8000   23.5210 O.2     1  UNL1        0.0000
     91  C         10.2330   -0.5520   23.2170 C.2     1  UNL1        0.0000
     92  C         10.8970   -1.0280   21.9410 C.3     1  UNL1        0.0000
     93  H         11.4290   -0.2120   21.4980 H       1  UNL1        0.0000
     94  H         10.1390   -1.3890   21.2770 H       1  UNL1        0.0000
     95  C         11.8800   -2.1700   22.2240 C.3     1  UNL1        0.0000
     96  H         11.7670   -2.4810   23.2410 H       1  UNL1        0.0000
     97  H         12.8710   -1.8100   22.0410 H       1  UNL1        0.0000
     98  N         11.6420   -3.3190   21.3460 N.4     1  UNL1        0.0000
     99  C         11.1960   -4.5220   22.0420 C.3     1  UNL1        0.0000
    100  C         11.3460   -5.7420   21.1230 C.3     1  UNL1        0.0000
    101  C         11.2830   -5.3880   19.6350 C.3     1  UNL1        0.0000
    102  C         10.3450   -4.2120   19.3970 C.3     1  UNL1        0.0000
    103  C         10.7400   -2.9850   20.2340 C.3     1  UNL1        0.0000
    104  H         12.5580   -3.5460   20.9570 H       1  UNL1        0.0000
    105  H         10.1690   -4.4110   22.3210 H       1  UNL1        0.0000
    106  H         11.7940   -4.6640   22.9180 H       1  UNL1        0.0000
    107  H         10.5590   -6.4310   21.3420 H       1  UNL1        0.0000
    108  H         12.3120   -6.1630   21.3090 H       1  UNL1        0.0000
    109  H         10.9280   -6.2360   19.0880 H       1  UNL1        0.0000
    110  H         12.2630   -5.1150   19.3060 H       1  UNL1        0.0000
    111  H          9.3490   -4.5040   19.6610 H       1  UNL1        0.0000
    112  H         10.4060   -3.9420   18.3640 H       1  UNL1        0.0000
    113  H         11.2320   -2.2800   19.5960 H       1  UNL1        0.0000
    114  H          9.8440   -2.5820   20.6570 H       1  UNL1        0.0000
@<TRIPOS>BOND
     1     1    20    1
     2     1    89    1
     3     1     2    1
     4     1    19    1
     5     2    21    1
     6     2     3    1
     7     2    41    1
     8     3    22    1
     9     3    17    1
    10     3     4    1
    11     4     5    1
    12     4    18    1
    13     4    33    1
    14     5    23    1
    15     5     6    1
    16     5    82    1
    17     6     7    1
    18     6    69    1
    19     6    24    1
    20     7     8    1
    21     7    25    1
    22     7    26    1
    23     8     9    2
    24     8    45    1
    25     9    27    1
    26     9    10    1
    27    10    11    1
    28    10    12    1
    29    10    28    1
    30    11    14    1
    31    12    16    1
    32    12    13    1
    33    12    17    1
    34    13    14    1
    35    13    16    1
    36    13    37    1
    37    14    15    2
    38    17    29    1
    39    17    62    1
    40    18    19    1
    41    18    30    1
    42    18    55    1
    43    19    32    1
    44    19    31    1
    45    33    35    1
    46    33    34    1
    47    33    36    1
    48    37    38    1
    49    37    39    1
    50    37    40    1
    51    41    43    1
    52    41    42    1
    53    41    44    1
    54    45    46    2
    55    45    47    1
    56    46    48    1
    57    48    49    1
    58    49    52    1
    59    49    50    1
    60    49    51    1
    61    52    53    3
    62    53    54    1
    63    55    56    1
    64    56    57    2
    65    56    58    1
    66    58    61    1
    67    58    60    1
    68    58    59    1
    69    62    63    1
    70    63    64    2
    71    63    65    1
    72    65    68    1
    73    65    66    1
    74    65    67    1
    75    69    70    1
    76    70    71    2
    77    70    72    1
    78    72    73    1
    79    72    74    1
    80    72    75    1
    81    75    77    1
    82    75    76    1
    83    75    78    1
    84    78    80    1
    85    78    81    1
    86    78    79    1
    87    82    83    1
    88    83    84    2
    89    83    85    1
    90    85    88    1
    91    85    86    1
    92    85    87    1
    93    89    91    1
    94    90    91    2
    95    91    92    1
    96    92    94    1
    97    92    93    1
    98    92    95    1
    99    95    98    1
   100    95    97    1
   101    95    96    1
   102    98   103    1
   103    98   104    1
   104    98    99    1
   105    99   100    1
   106    99   105    1
   107    99   106    1
   108   100   101    1
   109   100   108    1
   110   100   107    1
   111   101   109    1
   112   101   110    1
   113   101   102    1
   114   102   112    1
   115   102   111    1
   116   102   103    1
   117   103   113    1
   118   103   114    1
