@<TRIPOS>MOLECULE
UNL
 44 47 0 0 0
SMALL
GASTEIGER

@<TRIPOS>ATOM
      1  C          8.6850    0.5780   25.0150 C.ar    1  UNL1        0.0000
      2  C          9.9240    0.8920   24.4500 C.ar    1  UNL1        0.0000
      3  C         10.5160    0.0390   23.5060 C.ar    1  UNL1        0.0000
      4  C          9.8950   -1.1430   23.0790 C.ar    1  UNL1        0.0000
      5  C          8.6470   -1.4320   23.6490 C.ar    1  UNL1        0.0000
      6  C          8.0440   -0.5900   24.5940 C.ar    1  UNL1        0.0000
      7  H         10.4070    1.7590   24.7300 H       1  UNL1        0.0000
      8  H         11.4380    0.2900   23.1150 H       1  UNL1        0.0000
      9  H          8.1550   -2.2940   23.3650 H       1  UNL1        0.0000
     10  H          7.1190   -0.8340   24.9820 H       1  UNL1        0.0000
     11  N         10.4660   -1.9700   22.1380 N.pl3   1  UNL1        0.0000
     12  C         11.8270   -2.5220   22.2450 C.3     1  UNL1        0.0000
     13  C         12.6300   -2.1870   20.9790 C.3     1  UNL1        0.0000
     14  O         11.9510   -2.6190   19.7870 O.3     1  UNL1        0.0000
     15  C         10.6630   -1.9890   19.6930 C.3     1  UNL1        0.0000
     16  C          9.7690   -2.3390   20.8950 C.3     1  UNL1        0.0000
     17  H         11.7690   -3.5850   22.3590 H       1  UNL1        0.0000
     18  H         12.3140   -2.0920   23.0950 H       1  UNL1        0.0000
     19  H         13.5800   -2.6770   21.0330 H       1  UNL1        0.0000
     20  H         12.7480   -1.1250   20.9300 H       1  UNL1        0.0000
     21  H         10.1810   -2.3160   18.7950 H       1  UNL1        0.0000
     22  H         10.8100   -0.9290   19.6840 H       1  UNL1        0.0000
     23  H          8.8490   -1.7990   20.8270 H       1  UNL1        0.0000
     24  H          9.5630   -3.3890   20.8960 H       1  UNL1        0.0000
     25  C          8.0390    1.4780   26.0360 C.3     1  UNL1        0.0000
     26  H          7.0440    1.7100   25.7190 H       1  UNL1        0.0000
     27  H          8.0220    0.9710   26.9780 H       1  UNL1        0.0000
     28  O          9.3250    2.3960   28.3930 O.2     1  UNL1        0.0000
     29  C          9.3620    3.0770   27.3780 C.2     1  UNL1        0.0000
     30  N          8.7870    2.7050   26.1820 N.am    1  UNL1        0.0000
     31  H          8.8910    3.2940   25.4010 H       1  UNL1        0.0000
     32  C         10.0650    4.3940   27.3950 C.ar    1  UNL1        0.0000
     33  C          9.5180    5.5140   28.0290 C.ar    1  UNL1        0.0000
     34  C         10.2410    6.7110   28.1110 C.ar    1  UNL1        0.0000
     35  C         11.5460    6.7820   27.5840 C.ar    1  UNL1        0.0000
     36  N         12.3940    7.8730   27.6670 N.ar    1  UNL1        0.0000
     37  C         13.5350    7.5540   27.1140 C.ar    1  UNL1        0.0000
     38 CL         14.8770    8.6240   27.1060 Cl      1  UNL1        0.0000
     39  S         13.6730    6.0200   26.4060 S.2     1  UNL1        0.0000
     40  C         12.0730    5.6560   26.9400 C.ar    1  UNL1        0.0000
     41  C         11.3460    4.4600   26.8200 C.ar    1  UNL1        0.0000
     42  H          8.5730    5.4590   28.4390 H       1  UNL1        0.0000
     43  H          9.8190    7.5410   28.5560 H       1  UNL1        0.0000
     44  H         11.7430    3.6490   26.3220 H       1  UNL1        0.0000
@<TRIPOS>BOND
     1     1     2   ar
     2     1     6   ar
     3     1    25    1
     4     2     3   ar
     5     2     7    1
     6     3     4   ar
     7     3     8    1
     8     4    11    1
     9     4     5   ar
    10     5     9    1
    11     5     6   ar
    12     6    10    1
    13    11    16    1
    14    11    12    1
    15    12    13    1
    16    12    17    1
    17    12    18    1
    18    13    14    1
    19    13    20    1
    20    13    19    1
    21    14    15    1
    22    15    21    1
    23    15    22    1
    24    15    16    1
    25    16    23    1
    26    16    24    1
    27    25    26    1
    28    25    30    1
    29    25    27    1
    30    28    29    2
    31    29    30   am
    32    29    32    1
    33    30    31    1
    34    32    41   ar
    35    32    33   ar
    36    33    34   ar
    37    33    42    1
    38    34    35   ar
    39    34    43    1
    40    35    40   ar
    41    35    36   ar
    42    36    37   ar
    43    37    39   ar
    44    37    38    1
    45    39    40   ar
    46    40    41   ar
    47    41    44    1
