@<TRIPOS>MOLECULE
UNL
 36 37 0 0 0
SMALL
GASTEIGER

@<TRIPOS>ATOM
      1  C         11.7450    5.4600   25.0020 C.ar    1  UNL1        0.0000
      2  C         10.7160    5.0570   25.8600 C.ar    1  UNL1        0.0000
      3  C         10.3050    3.7160   25.9080 C.ar    1  UNL1        0.0000
      4  C         10.9200    2.7300   25.1280 C.ar    1  UNL1        0.0000
      5  C         11.9610    3.1500   24.2860 C.ar    1  UNL1        0.0000
      6  C         12.3720    4.4860   24.2190 C.ar    1  UNL1        0.0000
      7  H         10.2540    5.7550   26.4630 H       1  UNL1        0.0000
      8  H          9.5290    3.4490   26.5360 H       1  UNL1        0.0000
      9  H         12.4380    2.4500   23.6950 H       1  UNL1        0.0000
     10  H         13.1440    4.7550   23.5880 H       1  UNL1        0.0000
     11  N         10.5340    1.4060   25.1540 N.pl3   1  UNL1        0.0000
     12  C         10.7280    0.4790   24.0290 C.3     1  UNL1        0.0000
     13  C          9.3800   -0.0070   23.4810 C.3     1  UNL1        0.0000
     14  O          8.5450   -0.5500   24.5200 O.3     1  UNL1        0.0000
     15  C          8.2940    0.4480   25.5230 C.3     1  UNL1        0.0000
     16  C          9.5960    0.9290   26.1840 C.3     1  UNL1        0.0000
     17  H         11.2960   -0.3650   24.3640 H       1  UNL1        0.0000
     18  H         11.2500    0.9930   23.2490 H       1  UNL1        0.0000
     19  H          9.5560   -0.7660   22.7480 H       1  UNL1        0.0000
     20  H          8.8730    0.8320   23.0520 H       1  UNL1        0.0000
     21  H          7.6560    0.0330   26.2740 H       1  UNL1        0.0000
     22  H          7.8310    1.2890   25.0490 H       1  UNL1        0.0000
     23  H          9.3770    1.7290   26.8600 H       1  UNL1        0.0000
     24  H         10.0420    0.1160   26.7170 H       1  UNL1        0.0000
     25  C         12.1810    6.9000   24.9310 C.3     1  UNL1        0.0000
     26  H         12.3930    7.1490   23.9110 H       1  UNL1        0.0000
     27  H         11.3900    7.5080   25.3170 H       1  UNL1        0.0000
     28  O         12.2020    7.7990   27.5960 O.2     1  UNL1        0.0000
     29  C         13.2620    7.5820   27.0210 C.2     1  UNL1        0.0000
     30  N         13.3630    7.1390   25.7260 N.am    1  UNL1        0.0000
     31  H         14.2530    6.9840   25.3330 H       1  UNL1        0.0000
     32  C         14.5850    7.7770   27.6680 C.2     1  UNL1        0.0000
     33  C         15.2420    8.9410   27.5880 C.2     1  UNL1        0.0000
     34  H         15.0070    6.9960   28.1940 H       1  UNL1        0.0000
     35  H         14.8330    9.7300   27.0660 H       1  UNL1        0.0000
     36  H         16.1600    9.0470   28.0480 H       1  UNL1        0.0000
@<TRIPOS>BOND
     1     1     6   ar
     2     1    25    1
     3     1     2   ar
     4     2     3   ar
     5     2     7    1
     6     3     4   ar
     7     3     8    1
     8     4     5   ar
     9     4    11    1
    10     5     9    1
    11     5     6   ar
    12     6    10    1
    13    11    12    1
    14    11    16    1
    15    12    18    1
    16    12    13    1
    17    12    17    1
    18    13    19    1
    19    13    20    1
    20    13    14    1
    21    14    15    1
    22    15    22    1
    23    15    16    1
    24    15    21    1
    25    16    24    1
    26    16    23    1
    27    25    26    1
    28    25    27    1
    29    25    30    1
    30    28    29    2
    31    29    30   am
    32    29    32    1
    33    30    31    1
    34    32    33    2
    35    32    34    1
    36    33    35    1
    37    33    36    1
