@<TRIPOS>MOLECULE
UNL
 48 49 0 0 0
SMALL
GASTEIGER

@<TRIPOS>ATOM
      1  C         10.2400    2.3340   27.5250 C.3     1  UNL1        0.0000
      2  H          9.2890    2.5250   27.9780 H       1  UNL1        0.0000
      3  H         10.8750    1.7660   28.1730 H       1  UNL1        0.0000
      4  C         10.0260    1.5300   26.2700 C.ar    1  UNL1        0.0000
      5  C         10.9110    1.6230   25.1910 C.ar    1  UNL1        0.0000
      6  C         10.7300    0.8320   24.0440 C.ar    1  UNL1        0.0000
      7  C          9.6530   -0.0550   23.9210 C.ar    1  UNL1        0.0000
      8  C          8.7630   -0.1140   25.0040 C.ar    1  UNL1        0.0000
      9  C          8.9390    0.6610   26.1580 C.ar    1  UNL1        0.0000
     10  H         11.7060    2.2790   25.2370 H       1  UNL1        0.0000
     11  H         11.4090    0.9070   23.2700 H       1  UNL1        0.0000
     12  H          7.9510   -0.7480   24.9480 H       1  UNL1        0.0000
     13  H          8.2600    0.5890   26.9320 H       1  UNL1        0.0000
     14  N          9.4650   -0.8480   22.8100 N.pl3   1  UNL1        0.0000
     15  C          8.9270   -2.2150   22.8640 C.3     1  UNL1        0.0000
     16  C          9.9560   -3.2210   22.3270 C.3     1  UNL1        0.0000
     17  O         10.4270   -2.8550   21.0170 O.3     1  UNL1        0.0000
     18  C         11.0390   -1.5550   21.0570 C.3     1  UNL1        0.0000
     19  C         10.0440   -0.4730   21.5090 C.3     1  UNL1        0.0000
     20  H          8.0400   -2.2680   22.2680 H       1  UNL1        0.0000
     21  H          8.7060   -2.4590   23.8810 H       1  UNL1        0.0000
     22  H          9.4990   -4.1880   22.2720 H       1  UNL1        0.0000
     23  H         10.7930   -3.2290   22.9910 H       1  UNL1        0.0000
     24  H         11.3970   -1.3100   20.0800 H       1  UNL1        0.0000
     25  H         11.8420   -1.5850   21.7630 H       1  UNL1        0.0000
     26  H         10.5540    0.4630   21.6040 H       1  UNL1        0.0000
     27  H          9.2610   -0.3840   20.7850 H       1  UNL1        0.0000
     28  O          9.1090    4.8490   27.9890 O.2     1  UNL1        0.0000
     29  C         10.2380    4.7780   27.5280 C.2     1  UNL1        0.0000
     30  N         10.8910    3.5960   27.2670 N.am    1  UNL1        0.0000
     31  H         11.8060    3.6100   26.9020 H       1  UNL1        0.0000
     32  C         11.0500    5.9780   27.1900 C.2     1  UNL1        0.0000
     33  C         12.3320    5.8690   26.8030 C.2     1  UNL1        0.0000
     34  H         10.6200    6.9150   27.2560 H       1  UNL1        0.0000
     35  H         12.7550    4.9270   26.7710 H       1  UNL1        0.0000
     36  C         13.1840    7.0440   26.4110 C.3     1  UNL1        0.0000
     37  H         12.7480    7.9310   26.8210 H       1  UNL1        0.0000
     38  H         13.2180    7.0700   25.3420 H       1  UNL1        0.0000
     39  N         14.5700    6.9370   26.8910 N.4     1  UNL1        0.0000
     40  H         14.5580    6.3340   27.7130 H       1  UNL1        0.0000
     41  C         15.4560    6.3260   25.8970 C.3     1  UNL1        0.0000
     42  H         16.2440    7.0080   25.6540 H       1  UNL1        0.0000
     43  H         14.8960    6.0980   25.0140 H       1  UNL1        0.0000
     44  H         15.8730    5.4260   26.2970 H       1  UNL1        0.0000
     45  C         15.0810    8.2660   27.2430 C.3     1  UNL1        0.0000
     46  H         16.0580    8.3940   26.8280 H       1  UNL1        0.0000
     47  H         15.1300    8.3580   28.3070 H       1  UNL1        0.0000
     48  H         14.4250    9.0160   26.8500 H       1  UNL1        0.0000
@<TRIPOS>BOND
     1     1     4    1
     2     1    30    1
     3     1     2    1
     4     1     3    1
     5     4     5   ar
     6     4     9   ar
     7     5     6   ar
     8     5    10    1
     9     6    11    1
    10     6     7   ar
    11     7    14    1
    12     7     8   ar
    13     8    12    1
    14     8     9   ar
    15     9    13    1
    16    14    19    1
    17    14    15    1
    18    15    20    1
    19    15    16    1
    20    15    21    1
    21    16    17    1
    22    16    22    1
    23    16    23    1
    24    17    18    1
    25    18    24    1
    26    18    19    1
    27    18    25    1
    28    19    27    1
    29    19    26    1
    30    28    29    2
    31    29    32    1
    32    29    30   am
    33    30    31    1
    34    32    33    2
    35    32    34    1
    36    33    36    1
    37    33    35    1
    38    36    38    1
    39    36    37    1
    40    36    39    1
    41    39    41    1
    42    39    45    1
    43    39    40    1
    44    41    43    1
    45    41    42    1
    46    41    44    1
    47    45    46    1
    48    45    48    1
    49    45    47    1
