@<TRIPOS>MOLECULE
UNL
 48 49 0 0 0
SMALL
GASTEIGER

@<TRIPOS>ATOM
      1  C         10.7920    3.0410   27.2830 C.3     1  UNL1        0.0000
      2  H          9.8860    3.2620   27.8080 H       1  UNL1        0.0000
      3  H         11.5060    2.5740   27.9280 H       1  UNL1        0.0000
      4  C         10.4840    2.0890   26.1560 C.ar    1  UNL1        0.0000
      5  C          9.4350    1.1730   26.2630 C.ar    1  UNL1        0.0000
      6  C          9.1250    0.3130   25.2000 C.ar    1  UNL1        0.0000
      7  C          9.8540    0.3180   24.0040 C.ar    1  UNL1        0.0000
      8  C         10.9280    1.2170   23.9290 C.ar    1  UNL1        0.0000
      9  C         11.2420    2.0890   24.9830 C.ar    1  UNL1        0.0000
     10  H          8.8830    1.1280   27.1330 H       1  UNL1        0.0000
     11  H          8.3350   -0.3420   25.3020 H       1  UNL1        0.0000
     12  H         11.5040    1.2390   23.0720 H       1  UNL1        0.0000
     13  H         12.0400    2.7380   24.8900 H       1  UNL1        0.0000
     14  N          9.5360   -0.5170   22.9540 N.pl3   1  UNL1        0.0000
     15  C          9.0790   -1.9030   23.1340 C.3     1  UNL1        0.0000
     16  C          9.9930   -2.8610   22.3580 C.3     1  UNL1        0.0000
     17  O         10.0890   -2.4920   20.9720 O.3     1  UNL1        0.0000
     18  C         10.6200   -1.1610   20.8480 C.3     1  UNL1        0.0000
     19  C          9.7300   -0.1210   21.5530 C.3     1  UNL1        0.0000
     20  H          8.0770   -1.9960   22.7700 H       1  UNL1        0.0000
     21  H          9.1110   -2.1510   24.1750 H       1  UNL1        0.0000
     22  H          9.5960   -3.8530   22.4280 H       1  UNL1        0.0000
     23  H         10.9720   -2.8130   22.7880 H       1  UNL1        0.0000
     24  H         10.6880   -0.9120   19.8100 H       1  UNL1        0.0000
     25  H         11.5830   -1.1440   21.3140 H       1  UNL1        0.0000
     26  H         10.2020    0.8390   21.5140 H       1  UNL1        0.0000
     27  H          8.7810   -0.0680   21.0600 H       1  UNL1        0.0000
     28  O         10.1850    5.5960   28.2420 O.2     1  UNL1        0.0000
     29  C         10.9890    5.4880   27.3230 C.2     1  UNL1        0.0000
     30  N         11.3640    4.2750   26.8000 N.am    1  UNL1        0.0000
     31  H         12.0360    4.2470   26.0810 H       1  UNL1        0.0000
     32  C         11.6780    6.6920   26.7400 C.2     1  UNL1        0.0000
     33  C         12.9980    6.6710   26.4630 C.2     1  UNL1        0.0000
     34  H         13.5640    5.8450   26.7140 H       1  UNL1        0.0000
     35  H         13.4420    7.4790   26.0010 H       1  UNL1        0.0000
     36  C         10.7680    7.8680   26.4060 C.3     1  UNL1        0.0000
     37  H         10.0300    7.5270   25.7100 H       1  UNL1        0.0000
     38  H         11.4080    8.6320   26.0170 H       1  UNL1        0.0000
     39  N         10.0600    8.4790   27.5600 N.4     1  UNL1        0.0000
     40  H          9.7040    7.7150   28.1350 H       1  UNL1        0.0000
     41  C         10.9630    9.3040   28.3710 C.3     1  UNL1        0.0000
     42  H         10.7110   10.3360   28.2490 H       1  UNL1        0.0000
     43  H         11.9730    9.1430   28.0550 H       1  UNL1        0.0000
     44  H         10.8650    9.0320   29.4020 H       1  UNL1        0.0000
     45  C          8.9510    9.3180   27.0910 C.3     1  UNL1        0.0000
     46  H          9.3330   10.0880   26.4530 H       1  UNL1        0.0000
     47  H          8.4590    9.7630   27.9310 H       1  UNL1        0.0000
     48  H          8.2540    8.7180   26.5450 H       1  UNL1        0.0000
@<TRIPOS>BOND
     1     1     4    1
     2     1    30    1
     3     1     2    1
     4     1     3    1
     5     4     9   ar
     6     4     5   ar
     7     5     6   ar
     8     5    10    1
     9     6     7   ar
    10     6    11    1
    11     7    14    1
    12     7     8   ar
    13     8    12    1
    14     8     9   ar
    15     9    13    1
    16    14    19    1
    17    14    15    1
    18    15    16    1
    19    15    20    1
    20    15    21    1
    21    16    17    1
    22    16    22    1
    23    16    23    1
    24    17    18    1
    25    18    24    1
    26    18    25    1
    27    18    19    1
    28    19    27    1
    29    19    26    1
    30    28    29    2
    31    29    32    1
    32    29    30   am
    33    30    31    1
    34    32    36    1
    35    32    33    2
    36    33    35    1
    37    33    34    1
    38    36    37    1
    39    36    38    1
    40    36    39    1
    41    39    45    1
    42    39    40    1
    43    39    41    1
    44    41    43    1
    45    41    42    1
    46    41    44    1
    47    45    46    1
    48    45    48    1
    49    45    47    1
