@<TRIPOS>MOLECULE
UNL
 37 38 0 0 0
SMALL
GASTEIGER

@<TRIPOS>ATOM
      1  C         11.2870    3.7480   25.6300 C.ar    1  UNL1        0.0000
      2  C         10.9080    4.0060   26.9480 C.ar    1  UNL1        0.0000
      3  C         10.0820    3.1100   27.6370 C.ar    1  UNL1        0.0000
      4  C          9.6110    1.9260   27.0520 C.ar    1  UNL1        0.0000
      5  C         10.0440    1.6590   25.7450 C.ar    1  UNL1        0.0000
      6  C         10.8680    2.5520   25.0420 C.ar    1  UNL1        0.0000
      7  H         11.2390    4.8640   27.4180 H       1  UNL1        0.0000
      8  H          9.8100    3.3290   28.6080 H       1  UNL1        0.0000
      9  H          9.7480    0.7830   25.2880 H       1  UNL1        0.0000
     10  H         11.1650    2.3230   24.0810 H       1  UNL1        0.0000
     11  N          8.7700    1.0760   27.7340 N.pl3   1  UNL1        0.0000
     12  C          8.4100    1.2820   29.1450 C.3     1  UNL1        0.0000
     13  C          8.6990   -0.0040   29.9290 C.3     1  UNL1        0.0000
     14  O          7.9830   -1.1200   29.3690 O.3     1  UNL1        0.0000
     15  C          8.3720   -1.3290   27.9990 C.3     1  UNL1        0.0000
     16  C          8.1150   -0.0870   27.1210 C.3     1  UNL1        0.0000
     17  H          7.3710    1.5210   29.2190 H       1  UNL1        0.0000
     18  H          8.9870    2.0880   29.5500 H       1  UNL1        0.0000
     19  H          8.3960    0.1310   30.9460 H       1  UNL1        0.0000
     20  H          9.7470   -0.2090   29.8740 H       1  UNL1        0.0000
     21  H          7.8130   -2.1510   27.6030 H       1  UNL1        0.0000
     22  H          9.4230   -1.5270   27.9840 H       1  UNL1        0.0000
     23  H          8.5160   -0.2500   26.1420 H       1  UNL1        0.0000
     24  H          7.0620    0.0900   27.0440 H       1  UNL1        0.0000
     25  C         12.1340    4.7320   24.8720 C.3     1  UNL1        0.0000
     26  H         12.9190    4.2020   24.3740 H       1  UNL1        0.0000
     27  H         11.5070    5.2390   24.1690 H       1  UNL1        0.0000
     28  O         14.8030    5.6200   24.7760 O.2     1  UNL1        0.0000
     29  C         14.0320    6.0770   25.6090 C.2     1  UNL1        0.0000
     30  N         12.7170    5.7170   25.7420 N.am    1  UNL1        0.0000
     31  H         12.1650    6.1370   26.4410 H       1  UNL1        0.0000
     32  C         14.4930    7.0760   26.5460 C.1     1  UNL1        0.0000
     33  C         14.8670    7.9120   27.3230 C.1     1  UNL1        0.0000
     34  C         15.3290    8.9330   28.2630 C.3     1  UNL1        0.0000
     35  H         15.0870    8.6340   29.2620 H       1  UNL1        0.0000
     36  H         14.8480    9.8640   28.0440 H       1  UNL1        0.0000
     37  H         16.3890    9.0500   28.1720 H       1  UNL1        0.0000
@<TRIPOS>BOND
     1     1    25    1
     2     1     6   ar
     3     1     2   ar
     4     2     7    1
     5     2     3   ar
     6     3     4   ar
     7     3     8    1
     8     4     5   ar
     9     4    11    1
    10     5     6   ar
    11     5     9    1
    12     6    10    1
    13    11    16    1
    14    11    12    1
    15    12    17    1
    16    12    18    1
    17    12    13    1
    18    13    14    1
    19    13    20    1
    20    13    19    1
    21    14    15    1
    22    15    16    1
    23    15    21    1
    24    15    22    1
    25    16    23    1
    26    16    24    1
    27    25    27    1
    28    25    26    1
    29    25    30    1
    30    28    29    2
    31    29    30   am
    32    29    32    1
    33    30    31    1
    34    32    33    3
    35    33    34    1
    36    34    36    1
    37    34    37    1
    38    34    35    1
