@<TRIPOS>MOLECULE
UNL
 35 36 0 0 0
SMALL
GASTEIGER

@<TRIPOS>ATOM
      1  C         11.8310    5.4690   25.9050 C.ar    1  UNL1        0.0000
      2  C         11.1660    4.8330   26.9560 C.ar    1  UNL1        0.0000
      3  C         10.6750    3.5260   26.8060 C.ar    1  UNL1        0.0000
      4  C         10.8480    2.8030   25.6190 C.ar    1  UNL1        0.0000
      5  C         11.5450    3.4490   24.5860 C.ar    1  UNL1        0.0000
      6  C         12.0330    4.7560   24.7220 C.ar    1  UNL1        0.0000
      7  H         11.0330    5.3280   27.8520 H       1  UNL1        0.0000
      8  H         10.1720    3.0860   27.5920 H       1  UNL1        0.0000
      9  H         11.7030    2.9470   23.6990 H       1  UNL1        0.0000
     10  H         12.5460    5.1940   23.9410 H       1  UNL1        0.0000
     11  N         10.3570    1.5260   25.4530 N.pl3   1  UNL1        0.0000
     12  C         10.5850    0.7100   24.2520 C.3     1  UNL1        0.0000
     13  C          9.2420    0.3200   23.6130 C.3     1  UNL1        0.0000
     14  O          8.3700   -0.3200   24.5600 O.3     1  UNL1        0.0000
     15  C          8.1120    0.5560   25.6710 C.3     1  UNL1        0.0000
     16  C          9.4080    0.9350   26.4080 C.3     1  UNL1        0.0000
     17  H         11.1180   -0.1770   24.5220 H       1  UNL1        0.0000
     18  H         11.1540    1.2790   23.5460 H       1  UNL1        0.0000
     19  H          9.4270   -0.3520   22.8020 H       1  UNL1        0.0000
     20  H          8.7650    1.2130   23.2700 H       1  UNL1        0.0000
     21  H          7.4540    0.0640   26.3560 H       1  UNL1        0.0000
     22  H          7.6690    1.4530   25.2920 H       1  UNL1        0.0000
     23  H          9.1870    1.6440   27.1780 H       1  UNL1        0.0000
     24  H          9.8390    0.0590   26.8460 H       1  UNL1        0.0000
     25  C         12.3070    6.8880   26.0340 C.3     1  UNL1        0.0000
     26  H         13.2340    6.8940   26.5670 H       1  UNL1        0.0000
     27  H         12.4180    7.2870   25.0470 H       1  UNL1        0.0000
     28  O         12.9460    8.5470   28.1560 O.2     1  UNL1        0.0000
     29  C         11.7720    8.5130   27.7880 C.2     1  UNL1        0.0000
     30  N         11.3630    7.7220   26.7400 N.am    1  UNL1        0.0000
     31  H         10.4180    7.7240   26.4680 H       1  UNL1        0.0000
     32  C         10.7200    9.3540   28.4880 C.3     1  UNL1        0.0000
     33 CL          9.9970    8.5450   29.8960 Cl      1  UNL1        0.0000
     34  H          9.9420    9.5770   27.7880 H       1  UNL1        0.0000
     35  H         11.2070   10.2370   28.8440 H       1  UNL1        0.0000
@<TRIPOS>BOND
     1     1     6   ar
     2     1    25    1
     3     1     2   ar
     4     2     3   ar
     5     2     7    1
     6     3     4   ar
     7     3     8    1
     8     4     5   ar
     9     4    11    1
    10     5     9    1
    11     5     6   ar
    12     6    10    1
    13    11    12    1
    14    11    16    1
    15    12    18    1
    16    12    13    1
    17    12    17    1
    18    13    19    1
    19    13    20    1
    20    13    14    1
    21    14    15    1
    22    15    22    1
    23    15    21    1
    24    15    16    1
    25    16    24    1
    26    16    23    1
    27    25    27    1
    28    25    26    1
    29    25    30    1
    30    28    29    2
    31    29    30   am
    32    29    32    1
    33    30    31    1
    34    32    34    1
    35    32    35    1
    36    32    33    1
