@<TRIPOS>MOLECULE
UNL
 45 47 0 0 0
SMALL
GASTEIGER

@<TRIPOS>ATOM
      1  C          9.0540    5.3710   28.6690 C.ar    1  UNL1        0.0000
      2  C         10.2710    5.1870   28.0090 C.ar    1  UNL1        0.0000
      3  C         10.4890    4.0700   27.1940 C.ar    1  UNL1        0.0000
      4  C          9.5210    3.0730   27.0170 C.ar    1  UNL1        0.0000
      5  C          8.3160    3.2490   27.7080 C.ar    1  UNL1        0.0000
      6  C          8.0820    4.3730   28.5180 C.ar    1  UNL1        0.0000
      7  H         11.0230    5.8850   28.1230 H       1  UNL1        0.0000
      8  H         11.3940    3.9780   26.7060 H       1  UNL1        0.0000
      9  H          7.5790    2.5320   27.6200 H       1  UNL1        0.0000
     10  H          7.1800    4.4660   29.0100 H       1  UNL1        0.0000
     11  N          9.7890    1.9650   26.2460 N.pl3   1  UNL1        0.0000
     12  C         11.0070    1.8150   25.4390 C.3     1  UNL1        0.0000
     13  C         10.6220    1.2050   24.0770 C.3     1  UNL1        0.0000
     14  O          9.9060   -0.0360   24.2220 O.3     1  UNL1        0.0000
     15  C          8.7040    0.1660   24.9870 C.3     1  UNL1        0.0000
     16  C          9.0200    0.7160   26.3860 C.3     1  UNL1        0.0000
     17  H         11.6950    1.1670   25.9420 H       1  UNL1        0.0000
     18  H         11.4700    2.7670   25.2950 H       1  UNL1        0.0000
     19  H         11.5140    1.0240   23.5140 H       1  UNL1        0.0000
     20  H          9.9810    1.8980   23.5740 H       1  UNL1        0.0000
     21  H          8.1940   -0.7690   25.0870 H       1  UNL1        0.0000
     22  H          8.0930    0.8790   24.4740 H       1  UNL1        0.0000
     23  H          8.1080    0.9120   26.9080 H       1  UNL1        0.0000
     24  H          9.5920   -0.0020   26.9360 H       1  UNL1        0.0000
     25  C          8.8070    6.5330   29.6100 C.3     1  UNL1        0.0000
     26  H          8.0070    6.2690   30.2690 H       1  UNL1        0.0000
     27  H          9.7230    6.7140   30.1320 H       1  UNL1        0.0000
     28  N          8.4500    7.7800   28.9210 N.3     1  UNL1        0.0000
     29  H          8.1690    7.5360   27.9720 H       1  UNL1        0.0000
     30  O          8.9940   10.2080   28.4250 O.2     1  UNL1        0.0000
     31  S          9.6270    8.9670   28.8050 S.O2    1  UNL1        0.0000
     32  O         10.4340    8.8520   29.9980 O.2     1  UNL1        0.0000
     33  C         10.6350    8.4110   27.4540 C.ar    1  UNL1        0.0000
     34  C         11.9820    8.1220   27.6700 C.ar    1  UNL1        0.0000
     35  C         12.7230    7.5630   26.6190 C.ar    1  UNL1        0.0000
     36  C         12.1540    7.3120   25.3690 C.ar    1  UNL1        0.0000
     37 CL         13.0300    6.6560   24.0350 Cl      1  UNL1        0.0000
     38  C         10.8030    7.6230   25.1700 C.ar    1  UNL1        0.0000
     39  C         10.0410    8.1660   26.2110 C.ar    1  UNL1        0.0000
     40  H         12.4240    8.3150   28.5820 H       1  UNL1        0.0000
     41  H         10.3680    7.4510   24.2500 H       1  UNL1        0.0000
     42  H          9.0430    8.3850   26.0610 H       1  UNL1        0.0000
     43  N         14.1040    7.2270   26.8830 N.pl3   1  UNL1        0.0000
     44  O         14.8620    8.1660   27.1560 O.2     1  UNL1        0.0000
     45  O         14.4080    6.0270   26.8770 O.2     1  UNL1        0.0000
@<TRIPOS>BOND
     1     1     2   ar
     2     1     6   ar
     3     1    25    1
     4     2     3   ar
     5     2     7    1
     6     3     8    1
     7     3     4   ar
     8     4    11    1
     9     4     5   ar
    10     5     9    1
    11     5     6   ar
    12     6    10    1
    13    11    12    1
    14    11    16    1
    15    12    13    1
    16    12    18    1
    17    12    17    1
    18    13    19    1
    19    13    20    1
    20    13    14    1
    21    14    15    1
    22    15    22    1
    23    15    21    1
    24    15    16    1
    25    16    23    1
    26    16    24    1
    27    25    28    1
    28    25    27    1
    29    25    26    1
    30    28    29    1
    31    28    31    1
    32    30    31    2
    33    31    33    1
    34    31    32    2
    35    33    39   ar
    36    33    34   ar
    37    34    35   ar
    38    34    40    1
    39    35    36   ar
    40    35    43    1
    41    36    37    1
    42    36    38   ar
    43    38    41    1
    44    38    39   ar
    45    39    42    1
    46    43    45    2
    47    43    44    2
