@<TRIPOS>MOLECULE
UNL
 43 45 0 0 0
SMALL
GASTEIGER

@<TRIPOS>ATOM
      1  C          9.0350    5.5540   27.7130 C.ar    1  UNL1        0.0000
      2  C          8.1360    5.5060   26.6440 C.ar    1  UNL1        0.0000
      3  C          8.0840    4.3900   25.7940 C.ar    1  UNL1        0.0000
      4  C          8.9230    3.2860   25.9680 C.ar    1  UNL1        0.0000
      5  C          9.8160    3.3420   27.0460 C.ar    1  UNL1        0.0000
      6  C          9.8800    4.4520   27.8990 C.ar    1  UNL1        0.0000
      7  H          7.5010    6.3020   26.4770 H       1  UNL1        0.0000
      8  H          7.4040    4.3850   25.0180 H       1  UNL1        0.0000
      9  H         10.4440    2.5420   27.2190 H       1  UNL1        0.0000
     10  H         10.5600    4.4580   28.6770 H       1  UNL1        0.0000
     11  N          8.9090    2.2050   25.1130 N.pl3   1  UNL1        0.0000
     12  C          9.6510    0.9610   25.3730 C.3     1  UNL1        0.0000
     13  C         10.7130    0.7290   24.2910 C.3     1  UNL1        0.0000
     14  O         10.1410    0.7660   22.9720 O.3     1  UNL1        0.0000
     15  C          9.5240    2.0420   22.7340 C.3     1  UNL1        0.0000
     16  C          8.3940    2.3270   23.7400 C.3     1  UNL1        0.0000
     17  H          8.9660    0.1380   25.3760 H       1  UNL1        0.0000
     18  H         10.1370    1.0420   26.3220 H       1  UNL1        0.0000
     19  H         11.1650   -0.2280   24.4470 H       1  UNL1        0.0000
     20  H         11.4400    1.5110   24.3620 H       1  UNL1        0.0000
     21  H          9.1180    2.0520   21.7450 H       1  UNL1        0.0000
     22  H         10.2720    2.7990   22.8500 H       1  UNL1        0.0000
     23  H          8.0230    3.3180   23.5860 H       1  UNL1        0.0000
     24  H          7.6040    1.6190   23.5940 H       1  UNL1        0.0000
     25  C          9.2030    6.7670   28.6020 C.3     1  UNL1        0.0000
     26  H          8.6040    7.5580   28.2020 H       1  UNL1        0.0000
     27  H          8.9030    6.4660   29.5840 H       1  UNL1        0.0000
     28  N         10.5780    7.2520   28.7220 N.3     1  UNL1        0.0000
     29  H         10.6740    7.6610   29.6510 H       1  UNL1        0.0000
     30  O         10.1320    8.4660   26.5610 O.2     1  UNL1        0.0000
     31  S         11.1130    8.3960   27.6190 S.O2    1  UNL1        0.0000
     32  O         11.5030    9.5690   28.3650 O.2     1  UNL1        0.0000
     33  C         12.5390    7.6540   26.9190 C.ar    1  UNL1        0.0000
     34  C         13.7890    8.0750   27.3620 C.ar    1  UNL1        0.0000
     35  F         13.9040    9.1010   28.2180 F       1  UNL1        0.0000
     36  C         14.9430    7.4520   26.8960 C.ar    1  UNL1        0.0000
     37  F         16.1430    7.8620   27.3280 F       1  UNL1        0.0000
     38  C         14.8500    6.4120   25.9850 C.ar    1  UNL1        0.0000
     39  F         15.9590    5.8110   25.5350 F       1  UNL1        0.0000
     40  C         13.6040    6.0020   25.5290 C.ar    1  UNL1        0.0000
     41  F         13.5120    5.0090   24.6370 F       1  UNL1        0.0000
     42  C         12.4460    6.6190   26.0000 C.ar    1  UNL1        0.0000
     43  F         11.2660    6.1930   25.5340 F       1  UNL1        0.0000
@<TRIPOS>BOND
     1     1     2   ar
     2     1     6   ar
     3     1    25    1
     4     2     3   ar
     5     2     7    1
     6     3     8    1
     7     3     4   ar
     8     4    11    1
     9     4     5   ar
    10     5     9    1
    11     5     6   ar
    12     6    10    1
    13    11    16    1
    14    11    12    1
    15    12    13    1
    16    12    17    1
    17    12    18    1
    18    13    14    1
    19    13    20    1
    20    13    19    1
    21    14    15    1
    22    15    21    1
    23    15    22    1
    24    15    16    1
    25    16    23    1
    26    16    24    1
    27    25    26    1
    28    25    28    1
    29    25    27    1
    30    28    31    1
    31    28    29    1
    32    30    31    2
    33    31    33    1
    34    31    32    2
    35    33    42   ar
    36    33    34   ar
    37    34    36   ar
    38    34    35    1
    39    36    38   ar
    40    36    37    1
    41    38    40   ar
    42    38    39    1
    43    40    41    1
    44    40    42   ar
    45    42    43    1
