@<TRIPOS>MOLECULE
UNL
 58 61 0 0 0
SMALL
GASTEIGER

@<TRIPOS>ATOM
      1  O         84.8410   26.2610   15.8460 O.2     1  UNL1        0.0000
      2  C         85.4980   27.2510   16.1640 C.2     1  UNL1        0.0000
      3  N         86.8620   27.3520   16.0220 N.am    1  UNL1        0.0000
      4  H         87.2920   28.2040   16.2660 H       1  UNL1        0.0000
      5  C         84.7640   28.4270   16.7420 C.ar    1  UNL1        0.0000
      6  C         84.7950   29.7430   16.2570 C.ar    1  UNL1        0.0000
      7 CL         85.7690   30.2730   14.9310 Cl      1  UNL1        0.0000
      8  C         84.0300   30.7390   16.8800 C.ar    1  UNL1        0.0000
      9  C         83.2420   30.4380   17.9880 C.ar    1  UNL1        0.0000
     10  F         82.5340   31.4340   18.5420 F       1  UNL1        0.0000
     11  C         83.2000   29.1470   18.5070 C.ar    1  UNL1        0.0000
     12  C         83.9680   28.1520   17.8780 C.ar    1  UNL1        0.0000
     13  H         84.0510   31.7040   16.5150 H       1  UNL1        0.0000
     14  H         83.9500   27.1910   18.2560 H       1  UNL1        0.0000
     15  C         82.3900   28.7770   19.7040 C.2     1  UNL1        0.0000
     16  N         81.3520   27.8900   19.5280 N.am    1  UNL1        0.0000
     17  O         82.6630   29.2680   20.7960 O.2     1  UNL1        0.0000
     18  H         81.1890   27.5210   18.6300 H       1  UNL1        0.0000
     19  C         80.4920   27.4820   20.6180 C.3     1  UNL1        0.0000
     20  H         79.4730   27.5380   20.2950 H       1  UNL1        0.0000
     21  H         80.6670   28.1370   21.4450 H       1  UNL1        0.0000
     22  C         80.7890   26.0720   21.0610 C.ar    1  UNL1        0.0000
     23  C         81.8550   25.7950   21.9330 C.ar    1  UNL1        0.0000
     24  C         82.1110   24.4860   22.3500 C.ar    1  UNL1        0.0000
     25  C         81.2980   23.4500   21.8990 C.ar    1  UNL1        0.0000
     26  F         81.5470   22.1960   22.3030 F       1  UNL1        0.0000
     27  C         80.2400   23.7130   21.0400 C.ar    1  UNL1        0.0000
     28  F         79.4600   22.7110   20.6070 F       1  UNL1        0.0000
     29  C         79.9770   25.0130   20.6200 C.ar    1  UNL1        0.0000
     30  H         82.4540   26.5660   22.2690 H       1  UNL1        0.0000
     31  H         82.8970   24.2880   22.9880 H       1  UNL1        0.0000
     32  H         79.1850   25.2000   19.9860 H       1  UNL1        0.0000
     33  C         87.6760   26.3160   15.5510 C.ar    1  UNL1        0.0000
     34  C         88.2130   25.3080   16.3540 C.ar    1  UNL1        0.0000
     35  C         89.0070   24.3300   15.7230 C.ar    1  UNL1        0.0000
     36  C         89.2460   24.3470   14.3480 C.ar    1  UNL1        0.0000
     37  C         88.6250   25.3910   13.6630 C.ar    1  UNL1        0.0000
     38  N         87.8270   26.3400   14.2130 N.ar    1  UNL1        0.0000
     39  H         89.4240   23.5790   16.2940 H       1  UNL1        0.0000
     40  H         88.7870   25.4460   12.6450 H       1  UNL1        0.0000
     41  N         89.9990   23.3900   13.7050 N.pl3   1  UNL1        0.0000
     42  C         90.2080   23.3800   12.2510 C.3     1  UNL1        0.0000
     43  C         89.5940   22.1210   11.6260 C.3     1  UNL1        0.0000
     44  O         90.0830   20.9270   12.2610 O.3     1  UNL1        0.0000
     45  C         89.7520   20.9380   13.6610 C.3     1  UNL1        0.0000
     46  C         90.3800   22.1430   14.3880 C.3     1  UNL1        0.0000
     47  H         91.2580   23.3960   12.0470 H       1  UNL1        0.0000
     48  H         89.7340   24.2400   11.8290 H       1  UNL1        0.0000
     49  H         89.8460   22.0890   10.5860 H       1  UNL1        0.0000
     50  H         88.5330   22.1620   11.7580 H       1  UNL1        0.0000
     51  H         90.1150   20.0370   14.1100 H       1  UNL1        0.0000
     52  H         88.6890   21.0120   13.7520 H       1  UNL1        0.0000
     53  H         90.0300   22.1700   15.3980 H       1  UNL1        0.0000
     54  H         91.4450   22.0460   14.3770 H       1  UNL1        0.0000
     55  C         87.9630   25.1620   17.8260 C.3     1  UNL1        0.0000
     56  H         88.4920   25.9270   18.3560 H       1  UNL1        0.0000
     57  H         88.3030   24.2020   18.1530 H       1  UNL1        0.0000
     58  H         86.9150   25.2550   18.0210 H       1  UNL1        0.0000
@<TRIPOS>BOND
     1     1     2    2
     2     2     3   am
     3     2     5    1
     4     3    33    1
     5     3     4    1
     6     5     6   ar
     7     5    12   ar
     8     6     7    1
     9     6     8   ar
    10     8    13    1
    11     8     9   ar
    12     9    11   ar
    13     9    10    1
    14    11    12   ar
    15    11    15    1
    16    12    14    1
    17    15    16   am
    18    15    17    2
    19    16    18    1
    20    16    19    1
    21    19    20    1
    22    19    22    1
    23    19    21    1
    24    22    29   ar
    25    22    23   ar
    26    23    30    1
    27    23    24   ar
    28    24    25   ar
    29    24    31    1
    30    25    27   ar
    31    25    26    1
    32    27    28    1
    33    27    29   ar
    34    29    32    1
    35    33    38   ar
    36    33    34   ar
    37    34    35   ar
    38    34    55    1
    39    35    36   ar
    40    35    39    1
    41    36    37   ar
    42    36    41    1
    43    37    40    1
    44    37    38   ar
    45    41    42    1
    46    41    46    1
    47    42    43    1
    48    42    48    1
    49    42    47    1
    50    43    49    1
    51    43    50    1
    52    43    44    1
    53    44    45    1
    54    45    52    1
    55    45    51    1
    56    45    46    1
    57    46    54    1
    58    46    53    1
    59    55    58    1
    60    55    57    1
    61    55    56    1
