@<TRIPOS>MOLECULE
UNL
 50 52 0 0 0
SMALL
GASTEIGER

@<TRIPOS>ATOM
      1  C         88.3500   21.9470   11.2550 C.ar    1  UNL1        0.0000
      2  C         89.4900   21.1930   11.5570 C.ar    1  UNL1        0.0000
      3 CL         89.6890   19.5240   11.1450 Cl      1  UNL1        0.0000
      4  C         90.5570   21.7700   12.2740 C.ar    1  UNL1        0.0000
      5  C         90.5030   23.0940   12.7230 C.ar    1  UNL1        0.0000
      6  F         91.5680   23.5850   13.3730 F       1  UNL1        0.0000
      7  C         89.3800   23.8740   12.5000 C.ar    1  UNL1        0.0000
      8  C         88.3110   23.2840   11.7640 C.ar    1  UNL1        0.0000
      9  H         91.3960   21.2040   12.4740 H       1  UNL1        0.0000
     10  H         87.4660   23.8500   11.5910 H       1  UNL1        0.0000
     11  O         87.3510   21.2280    9.2460 O.2     1  UNL1        0.0000
     12  C         87.1510   21.4790   10.4350 C.2     1  UNL1        0.0000
     13  N         85.8950   21.3910   11.0310 N.am    1  UNL1        0.0000
     14  H         85.8420   21.5820   11.9960 H       1  UNL1        0.0000
     15  C         84.6740   21.0480   10.3680 C.ar    1  UNL1        0.0000
     16  C         84.4200   19.8550    9.6570 C.ar    1  UNL1        0.0000
     17  C         83.1600   19.6640    9.0090 C.ar    1  UNL1        0.0000
     18  C         82.1630   20.6320    9.0720 C.ar    1  UNL1        0.0000
     19  C         82.4020   21.7790    9.8360 C.ar    1  UNL1        0.0000
     20  C         83.6240   21.9710   10.4890 C.ar    1  UNL1        0.0000
     21  H         82.9880   18.7940    8.4830 H       1  UNL1        0.0000
     22  H         81.6650   22.4950    9.9210 H       1  UNL1        0.0000
     23  H         83.7570   22.8110   11.0730 H       1  UNL1        0.0000
     24  C         85.3950   18.7100    9.5960 C.3     1  UNL1        0.0000
     25  H         85.2140   18.0440   10.4140 H       1  UNL1        0.0000
     26  H         86.3940   19.0880    9.6580 H       1  UNL1        0.0000
     27  H         85.2700   18.1820    8.6740 H       1  UNL1        0.0000
     28  O         80.9130   20.5950    8.5120 O.3     1  UNL1        0.0000
     29  C         80.0090   19.6010    8.9490 C.3     1  UNL1        0.0000
     30  F         80.1630   19.4230   10.2830 F       1  UNL1        0.0000
     31  F         78.7570   20.1070    8.7730 F       1  UNL1        0.0000
     32  H         80.1710   18.6850    8.4200 H       1  UNL1        0.0000
     33  C         89.2650   25.2960   12.9840 C.2     1  UNL1        0.0000
     34  N         88.2420   25.6760   13.8660 N.am    1  UNL1        0.0000
     35  O         90.1160   26.0970   12.6050 O.2     1  UNL1        0.0000
     36  H         87.4450   25.1110   13.9860 H       1  UNL1        0.0000
     37  C         88.3880   26.9320   14.6030 C.3     1  UNL1        0.0000
     38  H         88.6800   27.6770   13.8930 H       1  UNL1        0.0000
     39  H         89.0900   26.6900   15.3730 H       1  UNL1        0.0000
     40  C         87.1990   27.4960   15.3720 C.ar    1  UNL1        0.0000
     41  C         86.8550   26.8980   16.6080 C.ar    1  UNL1        0.0000
     42  C         85.9550   27.5000   17.4940 C.ar    1  UNL1        0.0000
     43  C         85.3800   28.7150   17.1570 C.ar    1  UNL1        0.0000
     44  F         84.5650   29.3260   18.0280 F       1  UNL1        0.0000
     45  C         85.6730   29.3170   15.9370 C.ar    1  UNL1        0.0000
     46  C         86.5800   28.7130   15.0470 C.ar    1  UNL1        0.0000
     47  H         87.2810   25.9930   16.8630 H       1  UNL1        0.0000
     48  H         85.7220   27.0440   18.3890 H       1  UNL1        0.0000
     49  H         85.2230   30.2100   15.6840 H       1  UNL1        0.0000
     50  H         86.7910   29.1700   14.1460 H       1  UNL1        0.0000
@<TRIPOS>BOND
     1     1    12    1
     2     1     2   ar
     3     1     8   ar
     4     2     3    1
     5     2     4   ar
     6     4     9    1
     7     4     5   ar
     8     5     7   ar
     9     5     6    1
    10     7     8   ar
    11     7    33    1
    12     8    10    1
    13    11    12    2
    14    12    13   am
    15    13    15    1
    16    13    14    1
    17    15    16   ar
    18    15    20   ar
    19    16    17   ar
    20    16    24    1
    21    17    21    1
    22    17    18   ar
    23    18    28    1
    24    18    19   ar
    25    19    22    1
    26    19    20   ar
    27    20    23    1
    28    24    27    1
    29    24    26    1
    30    24    25    1
    31    28    29    1
    32    29    32    1
    33    29    31    1
    34    29    30    1
    35    33    35    2
    36    33    34   am
    37    34    36    1
    38    34    37    1
    39    37    38    1
    40    37    40    1
    41    37    39    1
    42    40    46   ar
    43    40    41   ar
    44    41    47    1
    45    41    42   ar
    46    42    43   ar
    47    42    48    1
    48    43    45   ar
    49    43    44    1
    50    45    46   ar
    51    45    49    1
    52    46    50    1
