@<TRIPOS>MOLECULE
UNL
 53 55 0 0 0
SMALL
GASTEIGER

@<TRIPOS>ATOM
      1  C         86.7030   27.1310   16.1690 C.ar    1  UNL1        0.0000
      2  C         86.9630   28.5010   16.0380 C.ar    1  UNL1        0.0000
      3 CL         88.4970   29.1540   15.5830 Cl      1  UNL1        0.0000
      4  C         85.9520   29.4340   16.3060 C.ar    1  UNL1        0.0000
      5  C         84.6830   29.0100   16.7000 C.ar    1  UNL1        0.0000
      6  F         83.7530   29.9470   16.9400 F       1  UNL1        0.0000
      7  C         84.3890   27.6560   16.8270 C.ar    1  UNL1        0.0000
      8  C         85.4070   26.7250   16.5690 C.ar    1  UNL1        0.0000
      9  H         86.1470   30.4430   16.2120 H       1  UNL1        0.0000
     10  H         85.2050   25.7180   16.6720 H       1  UNL1        0.0000
     11  O         88.0860   25.4470   16.9670 O.2     1  UNL1        0.0000
     12  C         87.6910   26.0270   15.9580 C.2     1  UNL1        0.0000
     13  N         88.0860   25.7410   14.6630 N.am    1  UNL1        0.0000
     14  H         87.7240   26.3130   13.9490 H       1  UNL1        0.0000
     15  C         88.9640   24.7010   14.2700 C.ar    1  UNL1        0.0000
     16  C         89.2090   23.5790   15.0580 C.ar    1  UNL1        0.0000
     17  C         90.1190   22.5970   14.6510 C.ar    1  UNL1        0.0000
     18  C         90.8070   22.6970   13.4340 C.ar    1  UNL1        0.0000
     19  C         90.5390   23.8230   12.6340 C.ar    1  UNL1        0.0000
     20  C         89.6170   24.8030   13.0390 C.ar    1  UNL1        0.0000
     21  H         88.7130   23.4690   15.9550 H       1  UNL1        0.0000
     22  H         90.2880   21.7810   15.2600 H       1  UNL1        0.0000
     23  H         91.0300   23.9320   11.7320 H       1  UNL1        0.0000
     24  H         89.4200   25.6070   12.4210 H       1  UNL1        0.0000
     25  C         91.8420   21.6550   13.0140 C.3     1  UNL1        0.0000
     26  C         91.2310   20.3610   12.4530 C.3     1  UNL1        0.0000
     27  H         90.4580   20.6060   11.7540 H       1  UNL1        0.0000
     28  H         90.8180   19.7850   13.2540 H       1  UNL1        0.0000
     29  H         91.9900   19.7920   11.9590 H       1  UNL1        0.0000
     30  C         92.7640   21.3140   14.1890 C.3     1  UNL1        0.0000
     31  H         93.7800   21.2910   13.8510 H       1  UNL1        0.0000
     32  H         92.4990   20.3550   14.5850 H       1  UNL1        0.0000
     33  H         92.6590   22.0560   14.9530 H       1  UNL1        0.0000
     34  O         92.6640   22.1900   11.9680 O.3     1  UNL1        0.0000
     35  H         92.7160   21.5520   11.2390 H       1  UNL1        0.0000
     36  C         83.0250   27.1620   17.1640 C.2     1  UNL1        0.0000
     37  N         82.5120   27.5050   18.3930 N.am    1  UNL1        0.0000
     38  O         82.4100   26.4870   16.3410 O.2     1  UNL1        0.0000
     39  H         83.0770   28.0110   19.0200 H       1  UNL1        0.0000
     40  C         81.1680   27.1470   18.7980 C.3     1  UNL1        0.0000
     41  H         80.6030   26.8800   17.9290 H       1  UNL1        0.0000
     42  H         80.7320   27.9900   19.2920 H       1  UNL1        0.0000
     43  C         81.1690   25.9850   19.7570 C.ar    1  UNL1        0.0000
     44  C         82.0840   25.9480   20.8230 C.ar    1  UNL1        0.0000
     45  C         82.0510   24.9090   21.7570 C.ar    1  UNL1        0.0000
     46  C         81.0980   23.9050   21.6300 C.ar    1  UNL1        0.0000
     47  F         81.0500   22.9250   22.5420 F       1  UNL1        0.0000
     48  C         80.1970   23.9230   20.5730 C.ar    1  UNL1        0.0000
     49  F         79.2800   22.9530   20.4520 F       1  UNL1        0.0000
     50  C         80.2270   24.9510   19.6330 C.ar    1  UNL1        0.0000
     51  H         82.7880   26.6970   20.9180 H       1  UNL1        0.0000
     52  H         82.7290   24.8860   22.5350 H       1  UNL1        0.0000
     53  H         79.5570   24.9540   18.8490 H       1  UNL1        0.0000
@<TRIPOS>BOND
     1     1    12    1
     2     1     2   ar
     3     1     8   ar
     4     2     3    1
     5     2     4   ar
     6     4     9    1
     7     4     5   ar
     8     5     7   ar
     9     5     6    1
    10     7     8   ar
    11     7    36    1
    12     8    10    1
    13    11    12    2
    14    12    13   am
    15    13    14    1
    16    13    15    1
    17    15    20   ar
    18    15    16   ar
    19    16    17   ar
    20    16    21    1
    21    17    18   ar
    22    17    22    1
    23    18    19   ar
    24    18    25    1
    25    19    23    1
    26    19    20   ar
    27    20    24    1
    28    25    34    1
    29    25    26    1
    30    25    30    1
    31    26    27    1
    32    26    29    1
    33    26    28    1
    34    30    31    1
    35    30    32    1
    36    30    33    1
    37    34    35    1
    38    36    38    2
    39    36    37   am
    40    37    40    1
    41    37    39    1
    42    40    41    1
    43    40    42    1
    44    40    43    1
    45    43    50   ar
    46    43    44   ar
    47    44    51    1
    48    44    45   ar
    49    45    46   ar
    50    45    52    1
    51    46    48   ar
    52    46    47    1
    53    48    50   ar
    54    48    49    1
    55    50    53    1
