@<TRIPOS>MOLECULE
UNL
 74 78 0 0 0
SMALL
GASTEIGER

@<TRIPOS>ATOM
      1  C         89.3570   22.2110   11.7010 C.ar    1  UNL1        0.0000
      2  C         90.3360   21.4110   12.2870 C.ar    1  UNL1        0.0000
      3  C         90.6960   21.6540   13.6160 C.ar    1  UNL1        0.0000
      4  C         90.1350   22.6720   14.3760 C.ar    1  UNL1        0.0000
      5  N         90.5510   22.7960   15.6370 N.ar    1  UNL1        0.0000
      6  C         90.0000   23.7650   16.4010 C.ar    1  UNL1        0.0000
      7  C         89.0560   24.6690   15.9490 C.ar    1  UNL1        0.0000
      8  C         88.6650   24.6030   14.5990 C.ar    1  UNL1        0.0000
      9  C         89.1700   23.5250   13.7910 C.ar    1  UNL1        0.0000
     10  C         88.7890   23.2560   12.4490 C.ar    1  UNL1        0.0000
     11  H         91.4110   21.0490   14.0510 H       1  UNL1        0.0000
     12  H         90.3040   23.8370   17.3860 H       1  UNL1        0.0000
     13  H         88.0700   23.8500   12.0090 H       1  UNL1        0.0000
     14  C         87.8330   21.8740    9.7390 C.2     1  UNL1        0.0000
     15  N         89.0420   22.1160   10.3370 N.am    1  UNL1        0.0000
     16  O         87.7570   21.8430    8.5120 O.2     1  UNL1        0.0000
     17  H         89.8000   22.2410    9.7200 H       1  UNL1        0.0000
     18  C         85.4780   21.2180   10.0560 C.2     1  UNL1        0.0000
     19  C         86.6650   21.5470   10.5950 C.2     1  UNL1        0.0000
     20  H         85.4240   21.1290    9.0280 H       1  UNL1        0.0000
     21  H         86.7660   21.5730   11.6220 H       1  UNL1        0.0000
     22  N         83.2480   20.1160   10.1530 N.4     1  UNL1        0.0000
     23  C         84.2260   20.9700   10.8490 C.3     1  UNL1        0.0000
     24  C         83.4300   22.2520   11.1260 C.3     1  UNL1        0.0000
     25  C         81.9640   21.8250   11.1170 C.3     1  UNL1        0.0000
     26  C         81.9840   20.3260   10.8600 C.3     1  UNL1        0.0000
     27  H         83.1790   20.3630    9.1670 H       1  UNL1        0.0000
     28  H         84.6050   20.5150   11.7400 H       1  UNL1        0.0000
     29  H         83.6130   22.9790   10.3630 H       1  UNL1        0.0000
     30  H         83.7090   22.7030   12.0550 H       1  UNL1        0.0000
     31  H         81.4310   22.3310   10.3400 H       1  UNL1        0.0000
     32  H         81.4740   22.0640   12.0370 H       1  UNL1        0.0000
     33  H         81.9650   19.7800   11.7800 H       1  UNL1        0.0000
     34  H         81.1350   19.9890   10.3050 H       1  UNL1        0.0000
     35  C         83.6380   18.7090   10.1610 C.3     1  UNL1        0.0000
     36  H         83.9070   18.4190   11.1560 H       1  UNL1        0.0000
     37  H         84.4750   18.5670    9.5100 H       1  UNL1        0.0000
     38  H         82.8180   18.1100    9.8250 H       1  UNL1        0.0000
     39  C         88.4780   25.5370   16.9300 C.1     1  UNL1        0.0000
     40  N         88.0110   26.1940   17.7680 N.1     1  UNL1        0.0000
     41  N         87.8280   25.5790   13.9950 N.pl3   1  UNL1        0.0000
     42  H         87.9450   25.6600   13.0220 H       1  UNL1        0.0000
     43  C         86.8630   26.4520   14.5330 C.ar    1  UNL1        0.0000
     44  C         87.0690   27.8250   14.6850 C.ar    1  UNL1        0.0000
     45  C         86.1190   28.6200   15.3370 C.ar    1  UNL1        0.0000
     46 CL         86.4600   30.3060   15.5180 Cl      1  UNL1        0.0000
     47  C         84.9320   28.0600   15.8240 C.ar    1  UNL1        0.0000
     48  C         84.7220   26.6870   15.6610 C.ar    1  UNL1        0.0000
     49  C         85.6730   25.8970   15.0130 C.ar    1  UNL1        0.0000
     50  H         87.9300   28.2580   14.3120 H       1  UNL1        0.0000
     51  H         83.8580   26.2540   16.0240 H       1  UNL1        0.0000
     52  H         85.4940   24.8890   14.8850 H       1  UNL1        0.0000
     53  O         84.0430   28.8990   16.4470 O.3     1  UNL1        0.0000
     54  C         82.9630   28.2650   17.1360 C.3     1  UNL1        0.0000
     55  H         83.0420   27.2060   17.0060 H       1  UNL1        0.0000
     56  H         82.0440   28.6310   16.7280 H       1  UNL1        0.0000
     57  C         82.9860   28.5820   18.6100 C.ar    1  UNL1        0.0000
     58  N         81.8430   29.0990   19.1320 N.ar    1  UNL1        0.0000
     59  C         81.8260   29.3730   20.4510 C.ar    1  UNL1        0.0000
     60  C         82.8950   29.1410   21.2960 C.ar    1  UNL1        0.0000
     61  C         84.0530   28.5940   20.7560 C.ar    1  UNL1        0.0000
     62  C         84.1030   28.3050   19.3960 C.ar    1  UNL1        0.0000
     63  H         80.9660   29.7790   20.8530 H       1  UNL1        0.0000
     64  H         82.8340   29.3660   22.3010 H       1  UNL1        0.0000
     65  H         84.8690   28.4030   21.3600 H       1  UNL1        0.0000
     66  H         84.9510   27.8910   18.9770 H       1  UNL1        0.0000
     67  O         91.0230   20.3730   11.7170 O.3     1  UNL1        0.0000
     68  C         90.9320   19.0840   12.3230 C.3     1  UNL1        0.0000
     69  H         90.6400   18.3590   11.5920 H       1  UNL1        0.0000
     70  H         90.2030   19.0960   13.1060 H       1  UNL1        0.0000
     71  C         92.2950   18.7200   12.8860 C.3     1  UNL1        0.0000
     72  H         92.2410   17.7640   13.3630 H       1  UNL1        0.0000
     73  H         92.5960   19.4580   13.5990 H       1  UNL1        0.0000
     74  H         93.0090   18.6810   12.0900 H       1  UNL1        0.0000
@<TRIPOS>BOND
     1     1    15    1
     2     1     2   ar
     3     1    10   ar
     4     2    67    1
     5     2     3   ar
     6     3    11    1
     7     3     4   ar
     8     4     9   ar
     9     4     5   ar
    10     5     6   ar
    11     6     7   ar
    12     6    12    1
    13     7     8   ar
    14     7    39    1
    15     8     9   ar
    16     8    41    1
    17     9    10   ar
    18    10    13    1
    19    14    16    2
    20    14    15   am
    21    14    19    1
    22    15    17    1
    23    18    20    1
    24    18    19    2
    25    18    23    1
    26    19    21    1
    27    22    27    1
    28    22    35    1
    29    22    23    1
    30    22    26    1
    31    23    24    1
    32    23    28    1
    33    24    29    1
    34    24    25    1
    35    24    30    1
    36    25    31    1
    37    25    26    1
    38    25    32    1
    39    26    34    1
    40    26    33    1
    41    35    37    1
    42    35    38    1
    43    35    36    1
    44    39    40    3
    45    41    42    1
    46    41    43    1
    47    43    44   ar
    48    43    49   ar
    49    44    50    1
    50    44    45   ar
    51    45    46    1
    52    45    47   ar
    53    47    48   ar
    54    47    53    1
    55    48    49   ar
    56    48    51    1
    57    49    52    1
    58    53    54    1
    59    54    56    1
    60    54    55    1
    61    54    57    1
    62    57    58   ar
    63    57    62   ar
    64    58    59   ar
    65    59    63    1
    66    59    60   ar
    67    60    61   ar
    68    60    64    1
    69    61    62   ar
    70    61    65    1
    71    62    66    1
    72    67    68    1
    73    68    69    1
    74    68    71    1
    75    68    70    1
    76    71    74    1
    77    71    72    1
    78    71    73    1
