@<TRIPOS>MOLECULE
UNL
 53 55 0 0 0
SMALL
GASTEIGER

@<TRIPOS>ATOM
      1  F         81.3870   27.7590   16.4240 F       1  UNL1        0.0000
      2  C         82.6540   27.3690   16.6250 C.ar    1  UNL1        0.0000
      3  C         83.2660   26.5010   15.7690 C.ar    1  UNL1        0.0000
      4  N         84.5420   26.1210   15.9210 N.ar    1  UNL1        0.0000
      5  C         85.2280   26.6210   16.9670 C.ar    1  UNL1        0.0000
      6  N         86.5900   26.3190   17.0730 N.pl3   1  UNL1        0.0000
      7  N         84.6820   27.4150   17.8990 N.ar    1  UNL1        0.0000
      8  C         83.4000   27.8090   17.7060 C.ar    1  UNL1        0.0000
      9  N         82.7700   28.6910   18.6100 N.pl3   1  UNL1        0.0000
     10  H         82.7270   26.1210   14.9750 H       1  UNL1        0.0000
     11  H         86.9750   26.2800   17.9780 H       1  UNL1        0.0000
     12  H         82.0540   29.2460   18.2240 H       1  UNL1        0.0000
     13  C         87.4550   26.0660   15.9920 C.ar    1  UNL1        0.0000
     14  C         87.6170   26.9850   14.9460 C.ar    1  UNL1        0.0000
     15  C         88.3590   26.6700   13.8050 C.ar    1  UNL1        0.0000
     16  C         88.9670   25.4230   13.6930 C.ar    1  UNL1        0.0000
     17  C         88.8700   24.5260   14.7600 C.ar    1  UNL1        0.0000
     18  C         88.1350   24.8490   15.9090 C.ar    1  UNL1        0.0000
     19  H         87.1790   27.9160   15.0200 H       1  UNL1        0.0000
     20  H         88.4580   27.3630   13.0460 H       1  UNL1        0.0000
     21  H         89.3460   23.6120   14.7010 H       1  UNL1        0.0000
     22  H         88.0950   24.1840   16.6970 H       1  UNL1        0.0000
     23  O         89.6620   24.9730   12.6040 O.3     1  UNL1        0.0000
     24  C         89.5860   23.5700   12.3410 C.3     1  UNL1        0.0000
     25  H         89.0770   23.4050   11.4150 H       1  UNL1        0.0000
     26  H         89.0510   23.0840   13.1300 H       1  UNL1        0.0000
     27  C         90.9980   23.0010   12.2550 C.3     1  UNL1        0.0000
     28  H         91.4250   22.9500   13.2340 H       1  UNL1        0.0000
     29  H         91.6040   23.6320   11.6380 H       1  UNL1        0.0000
     30  O         90.9410   21.6900   11.6890 O.3     1  UNL1        0.0000
     31  C         91.3340   20.6970   12.6270 C.3     1  UNL1        0.0000
     32  H         90.8050   19.7890   12.4270 H       1  UNL1        0.0000
     33  H         91.1080   21.0320   13.6170 H       1  UNL1        0.0000
     34  H         92.3870   20.5230   12.5410 H       1  UNL1        0.0000
     35  C         83.0110   28.8950   19.9780 C.ar    1  UNL1        0.0000
     36  C         82.1820   29.7770   20.6890 C.ar    1  UNL1        0.0000
     37  C         82.2890   29.9270   22.0750 C.ar    1  UNL1        0.0000
     38  C         83.2810   29.2080   22.7520 C.ar    1  UNL1        0.0000
     39  C         84.1160   28.3300   22.0600 C.ar    1  UNL1        0.0000
     40  C         83.9730   28.1680   20.6820 C.ar    1  UNL1        0.0000
     41  H         81.4750   30.3270   20.1760 H       1  UNL1        0.0000
     42  H         83.3940   29.3270   23.7700 H       1  UNL1        0.0000
     43  H         84.8420   27.8020   22.5680 H       1  UNL1        0.0000
     44  H         84.5820   27.5040   20.1780 H       1  UNL1        0.0000
     45  N         81.4150   30.7280   22.8460 N.am    1  UNL1        0.0000
     46  C         81.0170   32.0220   22.5660 C.2     1  UNL1        0.0000
     47  O         81.4160   32.7390   21.6580 O.2     1  UNL1        0.0000
     48  H         81.0530   30.3220   23.6660 H       1  UNL1        0.0000
     49  C         79.9700   32.5080   23.5120 C.2     1  UNL1        0.0000
     50  C         79.3350   33.6630   23.2730 C.2     1  UNL1        0.0000
     51  H         79.7360   31.9540   24.3500 H       1  UNL1        0.0000
     52  H         79.5690   34.2180   22.4350 H       1  UNL1        0.0000
     53  H         78.6110   33.9980   23.9280 H       1  UNL1        0.0000
@<TRIPOS>BOND
     1     1     2    1
     2     2     3   ar
     3     2     8   ar
     4     3    10    1
     5     3     4   ar
     6     4     5   ar
     7     5     6    1
     8     5     7   ar
     9     6    13    1
    10     6    11    1
    11     7     8   ar
    12     8     9    1
    13     9    12    1
    14     9    35    1
    15    13    14   ar
    16    13    18   ar
    17    14    15   ar
    18    14    19    1
    19    15    20    1
    20    15    16   ar
    21    16    23    1
    22    16    17   ar
    23    17    21    1
    24    17    18   ar
    25    18    22    1
    26    23    24    1
    27    24    25    1
    28    24    27    1
    29    24    26    1
    30    27    29    1
    31    27    30    1
    32    27    28    1
    33    30    31    1
    34    31    32    1
    35    31    34    1
    36    31    33    1
    37    35    40   ar
    38    35    36   ar
    39    36    41    1
    40    36    37   ar
    41    37    38   ar
    42    37    45    1
    43    38    39   ar
    44    38    42    1
    45    39    40   ar
    46    39    43    1
    47    40    44    1
    48    45    46   am
    49    45    48    1
    50    46    47    2
    51    46    49    1
    52    49    50    2
    53    49    51    1
    54    50    52    1
    55    50    53    1
