@<TRIPOS>MOLECULE
UNL
 64 67 0 0 0
SMALL
GASTEIGER

@<TRIPOS>ATOM
      1  C         88.4550   26.2010   14.2530 C.ar    1  UNL1        0.0000
      2  C         88.9020   24.8860   14.5330 C.ar    1  UNL1        0.0000
      3  C         89.9540   24.3000   13.7550 C.ar    1  UNL1        0.0000
      4  C         90.4830   25.0810   12.7100 C.ar    1  UNL1        0.0000
      5  C         89.9570   26.3260   12.3910 C.ar    1  UNL1        0.0000
      6  F         90.4710   27.0050   11.3560 F       1  UNL1        0.0000
      7  C         88.9420   26.8910   13.1430 C.ar    1  UNL1        0.0000
      8  H         91.2810   24.7180   12.1670 H       1  UNL1        0.0000
      9  H         88.5520   27.8110   12.8850 H       1  UNL1        0.0000
     10  C         90.5420   22.9570   14.0520 C.ar    1  UNL1        0.0000
     11  N         91.5950   23.0140   14.8990 N.ar    1  UNL1        0.0000
     12  C         92.2240   21.8740   15.1700 C.ar    1  UNL1        0.0000
     13  N         91.9420   20.6860   14.6360 N.ar    1  UNL1        0.0000
     14  C         90.9050   20.6360   13.7830 C.ar    1  UNL1        0.0000
     15  C         90.1060   21.7420   13.4750 C.ar    1  UNL1        0.0000
     16  H         92.9970   21.9120   15.8530 H       1  UNL1        0.0000
     17  N         90.7510   19.3570   13.2480 N.pl3   1  UNL1        0.0000
     18  H         91.5430   18.8210   13.0190 H       1  UNL1        0.0000
     19  H         89.8480   18.9930   13.0980 H       1  UNL1        0.0000
     20  O         88.9970   21.8060   12.6770 O.3     1  UNL1        0.0000
     21  C         89.1280   21.9840   11.2630 C.3     1  UNL1        0.0000
     22  H         90.1360   22.2560   11.0310 H       1  UNL1        0.0000
     23  H         88.4620   22.7560   10.9400 H       1  UNL1        0.0000
     24  C         88.7740   20.6710   10.5410 C.3     1  UNL1        0.0000
     25  H         89.5320   19.9500   10.7680 H       1  UNL1        0.0000
     26  H         88.7180   20.9040    9.4980 H       1  UNL1        0.0000
     27  N         87.4750   20.1040   10.9140 N.am    1  UNL1        0.0000
     28  C         86.3370   20.5130   10.2230 C.2     1  UNL1        0.0000
     29  O         86.3700   21.3350    9.3130 O.2     1  UNL1        0.0000
     30  C         85.0540   19.8830   10.6370 C.2     1  UNL1        0.0000
     31  C         84.0830   20.6090   11.2030 C.2     1  UNL1        0.0000
     32  H         84.9130   18.8710   10.4850 H       1  UNL1        0.0000
     33  H         84.2180   21.6200   11.3580 H       1  UNL1        0.0000
     34  H         83.1990   20.1570   11.4850 H       1  UNL1        0.0000
     35  C         87.4700   19.0650   11.9360 C.3     1  UNL1        0.0000
     36  H         86.5060   19.0250   12.3990 H       1  UNL1        0.0000
     37  H         88.2110   19.2880   12.6740 H       1  UNL1        0.0000
     38  H         87.6880   18.1200   11.4850 H       1  UNL1        0.0000
     39  C         86.2680   27.1160   14.9920 C.2     1  UNL1        0.0000
     40  N         87.6090   26.8560   15.1730 N.am    1  UNL1        0.0000
     41  O         85.5670   26.5780   14.1370 O.2     1  UNL1        0.0000
     42  H         88.0130   27.1540   16.0210 H       1  UNL1        0.0000
     43  F         85.9160   29.9350   14.4210 F       1  UNL1        0.0000
     44  C         85.4220   29.4320   15.5630 C.ar    1  UNL1        0.0000
     45  C         85.6410   28.1020   15.9160 C.ar    1  UNL1        0.0000
     46  C         85.1340   27.6470   17.1400 C.ar    1  UNL1        0.0000
     47  C         84.3580   28.4920   17.9440 C.ar    1  UNL1        0.0000
     48  C         84.0610   29.8070   17.5530 C.ar    1  UNL1        0.0000
     49  C         84.6420   30.2710   16.3630 C.ar    1  UNL1        0.0000
     50  H         85.3340   26.6840   17.4500 H       1  UNL1        0.0000
     51  H         83.9980   28.1380   18.8450 H       1  UNL1        0.0000
     52  H         84.4920   31.2500   16.0730 H       1  UNL1        0.0000
     53  C         83.0690   30.6520   18.3140 C.3     1  UNL1        0.0000
     54  C         82.4610   30.1540   19.6020 C.3     1  UNL1        0.0000
     55  C         81.6080   30.2810   18.3730 C.3     1  UNL1        0.0000
     56  H         83.6160   31.5220   18.0180 H       1  UNL1        0.0000
     57  H         82.3200   30.8260   20.4220 H       1  UNL1        0.0000
     58  H         82.6860   29.3630   20.2870 H       1  UNL1        0.0000
     59  H         81.2580   29.4030   17.8710 H       1  UNL1        0.0000
     60  H         80.6910   30.7800   18.1370 H       1  UNL1        0.0000
     61  C         88.1940   24.0780   15.6030 C.3     1  UNL1        0.0000
     62  H         88.4230   24.4850   16.5660 H       1  UNL1        0.0000
     63  H         88.5230   23.0610   15.5570 H       1  UNL1        0.0000
     64  H         87.1370   24.1200   15.4390 H       1  UNL1        0.0000
@<TRIPOS>BOND
     1     1     7   ar
     2     1     2   ar
     3     1    40    1
     4     2     3   ar
     5     2    61    1
     6     3     4   ar
     7     3    10    1
     8     4     8    1
     9     4     5   ar
    10     5     6    1
    11     5     7   ar
    12     7     9    1
    13    10    15   ar
    14    10    11   ar
    15    11    12   ar
    16    12    13   ar
    17    12    16    1
    18    13    14   ar
    19    14    17    1
    20    14    15   ar
    21    15    20    1
    22    17    18    1
    23    17    19    1
    24    20    21    1
    25    21    24    1
    26    21    23    1
    27    21    22    1
    28    24    26    1
    29    24    25    1
    30    24    27    1
    31    27    28   am
    32    27    35    1
    33    28    29    2
    34    28    30    1
    35    30    32    1
    36    30    31    2
    37    31    33    1
    38    31    34    1
    39    35    38    1
    40    35    36    1
    41    35    37    1
    42    39    41    2
    43    39    40   am
    44    39    45    1
    45    40    42    1
    46    43    44    1
    47    44    45   ar
    48    44    49   ar
    49    45    46   ar
    50    46    50    1
    51    46    47   ar
    52    47    48   ar
    53    47    51    1
    54    48    49   ar
    55    48    53    1
    56    49    52    1
    57    53    56    1
    58    53    55    1
    59    53    54    1
    60    54    55    1
    61    54    58    1
    62    54    57    1
    63    55    59    1
    64    55    60    1
    65    61    64    1
    66    61    63    1
    67    61    62    1
