@<TRIPOS>MOLECULE
UNL
 56 59 0 0 0
SMALL
GASTEIGER

@<TRIPOS>ATOM
      1  C         79.9420   29.3980   20.3470 C.ar    1  UNL1        0.1633
      2  C         80.5660   30.4700   19.6770 C.ar    1  UNL1        0.0053
      3  C         81.5510   30.2930   18.7100 C.ar    1  UNL1        0.0425
      4  C         81.8290   28.9950   18.2830 C.ar    1  UNL1        0.0193
      5  C         82.8560   28.8650   17.3250 C.3     1  UNL1        0.1425
      6  N         83.0850   27.5890   16.7570 N.pl3   1  UNL1       -0.3168
      7  N         83.5960   29.9070   16.9230 N.2     1  UNL1       -0.2493
      8  C         83.2550   31.1010   17.4240 C.2     1  UNL1        0.0825
      9  N         82.2400   31.3490   18.2630 N.pl3   1  UNL1       -0.3053
     10  C         81.1690   27.9090   18.9060 C.ar    1  UNL1       -0.0077
     11  C         80.3200   28.0920   20.0120 C.ar    1  UNL1        0.1628
     12  H         80.2780   31.4330   19.9150 H       1  UNL1        0.0674
     13  H         82.2920   27.0070   16.7170 H       1  UNL1        0.1485
     14  H         83.8290   31.9090   17.1360 H       1  UNL1        0.0997
     15  H         81.3150   26.9570   18.5380 H       1  UNL1        0.0660
     16  C         84.2660   27.0160   16.2410 C.ar    1  UNL1        0.0661
     17  C         84.3830   26.5910   14.9150 C.ar    1  UNL1       -0.0365
     18  C         85.6290   26.2130   14.3980 C.ar    1  UNL1       -0.0400
     19  C         86.7750   26.2510   15.2010 C.ar    1  UNL1        0.0622
     20 CL         88.2830   25.8240   14.4730 Cl      1  UNL1       -0.0819
     21  C         86.6750   26.6490   16.5340 C.ar    1  UNL1        0.0962
     22 CL         88.0470   26.7210   17.5850 Cl      1  UNL1       -0.0790
     23  C         85.4270   27.0320   17.0330 C.ar    1  UNL1        0.1638
     24  F         85.3150   27.4550   18.3060 F       1  UNL1       -0.2020
     25  H         83.5470   26.5560   14.3120 H       1  UNL1        0.0637
     26  H         85.7030   25.9040   13.4150 H       1  UNL1        0.0633
     27  O         79.2790   29.8060   21.4770 O.3     1  UNL1       -0.4914
     28  C         80.0060   30.4500   22.5130 C.3     1  UNL1        0.0790
     29  H         80.1720   29.7600   23.3140 H       1  UNL1        0.0660
     30  H         79.4460   31.2880   22.8730 H       1  UNL1        0.0660
     31  H         80.9470   30.7870   22.1320 H       1  UNL1        0.0660
     32  O         80.1520   26.9010   20.6720 O.3     1  UNL1       -0.4850
     33  C         80.7630   25.7060   20.1930 C.3     1  UNL1        0.1032
     34  C         79.8880   24.4530   20.3220 C.3     1  UNL1        0.0001
     35  C         79.8830   23.8660   21.7110 C.3     1  UNL1        0.0183
     36  N         81.2290   23.5600   22.1480 N.am    1  UNL1       -0.2978
     37  C         81.4500   22.3100   22.7000 C.2     1  UNL1        0.2389
     38  O         80.6480   21.3710   22.6060 O.2     1  UNL1       -0.2706
     39  C         82.1320   24.7090   22.1760 C.3     1  UNL1        0.0183
     40  C         82.1300   25.5150   20.8760 C.3     1  UNL1        0.0001
     41  H         80.8980   25.8320   19.1400 H       1  UNL1        0.0734
     42  H         80.2540   23.7130   19.6420 H       1  UNL1        0.0316
     43  H         78.8830   24.7460   20.1000 H       1  UNL1        0.0316
     44  H         79.3030   22.9650   21.7090 H       1  UNL1        0.0466
     45  H         79.4580   24.5810   22.3830 H       1  UNL1        0.0466
     46  H         83.1270   24.3550   22.3550 H       1  UNL1        0.0466
     47  H         81.7910   25.3610   22.9540 H       1  UNL1        0.0466
     48  H         82.5250   26.4850   21.0920 H       1  UNL1        0.0316
     49  H         82.7150   24.9430   20.1850 H       1  UNL1        0.0316
     50  C         82.6950   22.1400   23.5040 C.2     1  UNL1       -0.0067
     51  C         83.6090   21.2420   23.1260 C.2     1  UNL1       -0.0938
     52  H         82.8490   22.7120   24.3490 H       1  UNL1        0.0663
     53  H         83.4520   20.6710   22.2810 H       1  UNL1        0.0536
     54  H         84.4720   21.1200   23.6780 H       1  UNL1        0.0536
     55 H          83.2207   29.6889   17.9022 H       1  UNL1        0.0805
     56 H          82.0118   32.2664   18.5379 H       1  UNL1        0.1530
@<TRIPOS>BOND
     1     1     2   ar
     2     1    11   ar
     3     1    27    1
     4     2     3   ar
     5     2    12    1
     6     3     9    1
     7     3     4   ar
     8     4     5    1
     9     4    10   ar
    10     5     6    1
    11     5     7    1
    12     5    55    1
    13     6    16    1
    14     6    13    1
    15     7     8    2
    16     8    14    1
    17     8     9    1
    18     9    56    1
    19    10    15    1
    20    10    11   ar
    21    11    32    1
    22    16    17   ar
    23    16    23   ar
    24    17    25    1
    25    17    18   ar
    26    18    26    1
    27    18    19   ar
    28    19    20    1
    29    19    21   ar
    30    21    23   ar
    31    21    22    1
    32    23    24    1
    33    27    28    1
    34    28    31    1
    35    28    30    1
    36    28    29    1
    37    32    33    1
    38    33    41    1
    39    33    34    1
    40    33    40    1
    41    34    42    1
    42    34    43    1
    43    34    35    1
    44    35    44    1
    45    35    36    1
    46    35    45    1
    47    36    39    1
    48    36    37   am
    49    37    38    2
    50    37    50    1
    51    39    40    1
    52    39    46    1
    53    39    47    1
    54    40    49    1
    55    40    48    1
    56    50    51    2
    57    50    52    1
    58    51    53    1
    59    51    54    1
