@<TRIPOS>MOLECULE
UNL
 59 62 0 0 0
SMALL
GASTEIGER

@<TRIPOS>ATOM
      1  C         84.9200   29.8450   16.2250 C.ar    1  UNL1        0.0000
      2  N         83.9940   30.8000   16.3970 N.ar    1  UNL1        0.0000
      3  C         83.3100   30.7580   17.5370 C.ar    1  UNL1        0.0000
      4  N         83.4880   29.8760   18.5210 N.ar    1  UNL1        0.0000
      5  C         84.4170   28.9180   18.3320 C.ar    1  UNL1        0.0000
      6  N         84.6040   28.0170   19.3910 N.pl3   1  UNL1        0.0000
      7  C         85.1900   28.8250   17.1520 C.ar    1  UNL1        0.0000
      8  H         82.5770   31.4700   17.6710 H       1  UNL1        0.0000
      9  H         85.4110   27.4550   19.4310 H       1  UNL1        0.0000
     10  C         86.1440   27.6990   16.8610 C.ar    1  UNL1        0.0000
     11  C         87.4950   27.7320   17.2420 C.ar    1  UNL1        0.0000
     12  C         88.3410   26.6300   17.0900 C.ar    1  UNL1        0.0000
     13  C         85.7160   26.5150   16.2200 C.ar    1  UNL1        0.0000
     14  C         86.5850   25.4410   15.9780 C.ar    1  UNL1        0.0000
     15  C         87.9040   25.4950   16.4120 C.ar    1  UNL1        0.0000
     16  H         87.8750   28.6000   17.6500 H       1  UNL1        0.0000
     17  H         89.2950   26.6590   17.4810 H       1  UNL1        0.0000
     18  H         84.7310   26.4370   15.9220 H       1  UNL1        0.0000
     19  H         86.2450   24.6080   15.4730 H       1  UNL1        0.0000
     20  O         88.6810   24.3830   16.1750 O.3     1  UNL1        0.0000
     21  C         89.2340   24.2090   14.9250 C.ar    1  UNL1        0.0000
     22  C         90.0040   23.0630   14.7300 C.ar    1  UNL1        0.0000
     23  C         90.6100   22.8330   13.4930 C.ar    1  UNL1        0.0000
     24  C         90.4440   23.7490   12.4530 C.ar    1  UNL1        0.0000
     25  C         89.6440   24.8760   12.6360 C.ar    1  UNL1        0.0000
     26  C         89.0140   25.0910   13.8610 C.ar    1  UNL1        0.0000
     27  H         90.1270   22.3850   15.4980 H       1  UNL1        0.0000
     28  H         91.1810   21.9870   13.3470 H       1  UNL1        0.0000
     29  H         90.9140   23.5920   11.5480 H       1  UNL1        0.0000
     30  H         89.5180   25.5510   11.8660 H       1  UNL1        0.0000
     31  H         88.3850   25.8990   13.9830 H       1  UNL1        0.0000
     32  N         85.5730   29.9500   14.9910 N.pl3   1  UNL1        0.0000
     33  H         85.8510   30.8320   14.6540 H       1  UNL1        0.0000
     34  H         85.7540   29.1410   14.4600 H       1  UNL1        0.0000
     35  C         83.5870   27.9230   20.4340 C.3     1  UNL1        0.0000
     36  H         82.8060   28.6200   20.2180 H       1  UNL1        0.0000
     37  H         84.0530   28.1420   21.3710 H       1  UNL1        0.0000
     38  C         82.9800   26.5040   20.5220 C.3     1  UNL1        0.0000
     39  C         82.1500   26.2020   19.2510 C.3     1  UNL1        0.0000
     40  C         80.7660   26.8430   19.3090 C.3     1  UNL1        0.0000
     41  N         80.0810   26.3630   20.5020 N.am    1  UNL1        0.0000
     42  C         79.1920   25.2950   20.5680 C.2     1  UNL1        0.0000
     43  O         78.7630   24.8560   21.6360 O.2     1  UNL1        0.0000
     44  C         80.7220   26.8090   21.7380 C.3     1  UNL1        0.0000
     45  C         82.1510   26.2590   21.8070 C.3     1  UNL1        0.0000
     46  H         83.8020   25.8210   20.5800 H       1  UNL1        0.0000
     47  H         82.0370   25.1430   19.1560 H       1  UNL1        0.0000
     48  H         82.6710   26.6120   18.4110 H       1  UNL1        0.0000
     49  H         80.2070   26.5730   18.4370 H       1  UNL1        0.0000
     50  H         80.8580   27.9090   19.3440 H       1  UNL1        0.0000
     51  H         80.1630   26.4520   22.5770 H       1  UNL1        0.0000
     52  H         80.7530   27.8790   21.7540 H       1  UNL1        0.0000
     53  H         82.6540   26.7280   22.6270 H       1  UNL1        0.0000
     54  H         82.0710   25.1990   21.9280 H       1  UNL1        0.0000
     55  C         78.7640   24.6550   19.2880 C.2     1  UNL1        0.0000
     56  C         78.9820   23.3550   19.0560 C.2     1  UNL1        0.0000
     57  H         78.2930   25.2260   18.5690 H       1  UNL1        0.0000
     58  H         79.4540   22.7750   19.7680 H       1  UNL1        0.0000
     59  H         78.6790   22.9320   18.1640 H       1  UNL1        0.0000
@<TRIPOS>BOND
     1     1    32    1
     2     1     2   ar
     3     1     7   ar
     4     2     3   ar
     5     3     8    1
     6     3     4   ar
     7     4     5   ar
     8     5     7   ar
     9     5     6    1
    10     6     9    1
    11     6    35    1
    12     7    10    1
    13    10    13   ar
    14    10    11   ar
    15    11    12   ar
    16    11    16    1
    17    12    15   ar
    18    12    17    1
    19    13    18    1
    20    13    14   ar
    21    14    19    1
    22    14    15   ar
    23    15    20    1
    24    20    21    1
    25    21    26   ar
    26    21    22   ar
    27    22    23   ar
    28    22    27    1
    29    23    24   ar
    30    23    28    1
    31    24    29    1
    32    24    25   ar
    33    25    30    1
    34    25    26   ar
    35    26    31    1
    36    32    34    1
    37    32    33    1
    38    35    36    1
    39    35    38    1
    40    35    37    1
    41    38    39    1
    42    38    46    1
    43    38    45    1
    44    39    48    1
    45    39    47    1
    46    39    40    1
    47    40    49    1
    48    40    50    1
    49    40    41    1
    50    41    42   am
    51    41    44    1
    52    42    55    1
    53    42    43    2
    54    44    52    1
    55    44    45    1
    56    44    51    1
    57    45    54    1
    58    45    53    1
    59    55    57    1
    60    55    56    2
    61    56    59    1
    62    56    58    1
