@<TRIPOS>MOLECULE
UNL
 93 99 0 0 0
SMALL
GASTEIGER

@<TRIPOS>ATOM
      1  C         81.0930   30.3020   20.1650 C.3     1  UNL1        0.0704
      2  C         79.5960   30.6270   20.2180 C.3     1  UNL1       -0.0275
      3  C         78.7570   29.6790   19.3490 C.3     1  UNL1       -0.0352
      4  C         79.3500   29.3470   17.9580 C.3     1  UNL1        0.0151
      5  N         80.8150   29.1980   17.9500 N.am    1  UNL1       -0.2949
      6  C         81.4040   28.0580   17.3780 C.2     1  UNL1        0.2566
      7  O         80.7060   27.2660   16.7290 O.2     1  UNL1       -0.2692
      8  C         81.4890   30.2750   18.6770 C.3     1  UNL1        0.0375
      9  H         81.6850   31.0500   20.6490 H       1  UNL1        0.0561
     10  H         79.4500   31.6300   19.8750 H       1  UNL1        0.0287
     11  H         79.2730   30.5100   21.2320 H       1  UNL1        0.0287
     12  H         77.7990   30.1320   19.1980 H       1  UNL1        0.0281
     13  H         78.7190   28.7510   19.8800 H       1  UNL1        0.0281
     14  H         79.0870   30.1350   17.2830 H       1  UNL1        0.0465
     15  H         78.9410   28.4010   17.6680 H       1  UNL1        0.0465
     16  H         82.5470   30.1330   18.6040 H       1  UNL1        0.0485
     17  H         81.1930   31.2060   18.2410 H       1  UNL1        0.0485
     18  C         81.2360   27.0980   21.6660 C.ar    1  UNL1        0.1038
     19  N         80.6630   27.9940   20.8430 N.ar    1  UNL1       -0.1687
     20  N         81.4220   29.1030   20.9330 N.ar    1  UNL1       -0.2449
     21  C         82.4360   28.9710   21.8420 C.ar    1  UNL1        0.1293
     22  C         82.4240   27.6420   22.2510 C.ar    1  UNL1        0.0583
     23  C         83.4990   27.2400   23.0600 C.3     1  UNL1        0.1306
     24  N         83.8010   25.9330   23.4110 N.3     1  UNL1       -0.3056
     25  N         84.3550   28.1800   23.5120 N.2     1  UNL1       -0.2529
     26  C         84.1970   29.4510   23.0990 C.2     1  UNL1        0.0832
     27  N         83.2880   29.9320   22.2390 N.pl3   1  UNL1       -0.2906
     28  H         83.2190   25.1960   23.1150 H       1  UNL1        0.1205
     29  H         84.5990   25.7420   23.9550 H       1  UNL1        0.1205
     30  H         84.8570   30.1400   23.4930 H       1  UNL1        0.0997
     31  F         81.1420   25.0330   19.6670 F       1  UNL1       -0.2047
     32  C         80.5460   24.8250   20.8500 C.ar    1  UNL1        0.1361
     33  C         80.5800   25.7970   21.8510 C.ar    1  UNL1        0.0379
     34  C         80.0400   25.4520   23.1020 C.ar    1  UNL1       -0.0463
     35  C         79.4440   24.2020   23.3140 C.ar    1  UNL1       -0.0185
     36  C         79.3320   23.2910   22.2650 C.ar    1  UNL1        0.1312
     37  C         79.9140   23.5960   21.0380 C.ar    1  UNL1        0.0166
     38  H         80.0850   26.1300   23.8770 H       1  UNL1        0.0626
     39  H         79.0870   23.9550   24.2510 H       1  UNL1        0.0654
     40  H         79.8760   22.9130   20.2650 H       1  UNL1        0.0683
     41  O         78.7580   22.0450   22.3490 O.3     1  UNL1       -0.4559
     42  C         79.5300   20.9130   22.2390 C.ar    1  UNL1        0.1284
     43  C         79.2800   19.8760   21.3370 C.ar    1  UNL1       -0.0193
     44  C         80.1210   18.7620   21.3060 C.ar    1  UNL1       -0.0583
     45  C         81.2400   18.7090   22.1360 C.ar    1  UNL1       -0.0615
     46  C         81.5260   19.7720   22.9910 C.ar    1  UNL1       -0.0583
     47  C         80.6730   20.8750   23.0400 C.ar    1  UNL1       -0.0193
     48  H         78.4750   19.9340   20.6940 H       1  UNL1        0.0654
     49  H         79.9130   17.9780   20.6690 H       1  UNL1        0.0619
     50  H         81.8560   17.8820   22.1190 H       1  UNL1        0.0618
     51  H         82.3690   19.7450   23.5860 H       1  UNL1        0.0619
     52  H         80.8860   21.6630   23.6700 H       1  UNL1        0.0654
     53  C         82.9000   27.7530   17.5240 C.2     1  UNL1        0.1083
     54  C         83.7120   27.8450   16.4450 C.2     1  UNL1       -0.0726
     55  H         83.2320   28.0780   15.5620 H       1  UNL1        0.0572
     56  C         83.4240   27.1810   18.7080 C.1     1  UNL1        0.1040
     57  N         83.8810   26.7270   19.6670 N.1     1  UNL1       -0.1907
     58  C         85.2370   27.6580   16.3210 C.3     1  UNL1       -0.0509
     59  N         85.6120   26.2770   15.8940 N.4     1  UNL1        0.3831
     60  C         86.7560   25.6600   16.5890 C.3     1  UNL1       -0.1049
     61  C         88.1410   26.0250   16.0090 C.3     1  UNL1       -0.1054
     62  N         88.2820   25.9970   14.5380 N.4     1  UNL1        0.3822
     63  C         87.0590   26.4200   13.8200 C.3     1  UNL1       -0.1054
     64  C         85.7240   25.9970   14.4600 C.3     1  UNL1       -0.1049
     65  H         84.7530   25.8250   16.2080 H       1  UNL1       -0.0808
     66  H         86.6430   24.5970   16.5390 H       1  UNL1        0.0041
     67  H         86.7400   26.0390   17.5900 H       1  UNL1        0.0041
     68  H         88.8510   25.3350   16.4140 H       1  UNL1        0.0041
     69  H         88.2960   27.0470   16.2840 H       1  UNL1        0.0041
     70  H         89.0160   26.6720   14.3290 H       1  UNL1       -0.0814
     71  H         87.0960   26.0030   12.8360 H       1  UNL1        0.0041
     72  H         87.0640   27.4890   13.8420 H       1  UNL1        0.0041
     73  H         84.9350   26.5170   13.9580 H       1  UNL1        0.0041
     74  H         85.6660   24.9340   14.3560 H       1  UNL1        0.0041
     75  C         88.6660   24.6590   14.0670 C.3     1  UNL1       -0.0304
     76  C         89.8670   24.0890   14.8410 C.3     1  UNL1        0.0377
     77  O         90.5960   23.8770   13.5990 O.3     1  UNL1       -0.3828
     78  C         89.7080   24.8170   12.9380 C.3     1  UNL1        0.0377
     79  H         87.7260   24.1520   13.9920 H       1  UNL1        0.0139
     80  H         89.6500   23.1870   15.3760 H       1  UNL1        0.0544
     81  H         90.3120   24.6580   15.6300 H       1  UNL1        0.0544
     82  H         90.1090   25.8060   12.8540 H       1  UNL1        0.0544
     83  H         89.4220   24.6580   11.9200 H       1  UNL1        0.0544
     84  C         85.9740   28.5680   15.2930 C.3     1  UNL1       -0.0715
     85  H         85.7380   28.2470   14.2990 H       1  UNL1        0.0219
     86  H         87.0300   28.4980   15.4470 H       1  UNL1        0.0219
     87  H         85.6600   29.5820   15.4240 H       1  UNL1        0.0219
     88  C         85.8650   28.0140   17.6870 C.3     1  UNL1       -0.0715
     89  H         85.3150   28.8140   18.1350 H       1  UNL1        0.0219
     90  H         86.8820   28.3140   17.5460 H       1  UNL1        0.0219
     91  H         85.8330   27.1560   18.3280 H       1  UNL1        0.0219
     92 H          82.5366   26.7917   22.9268 H       1  UNL1        0.0764
     93 H          83.2494   30.8683   21.9371 H       1  UNL1        0.1544
@<TRIPOS>BOND
     1     1     8    1
     2     1     2    1
     3     1     9    1
     4     1    20    1
     5     2     3    1
     6     2    10    1
     7     2    11    1
     8     3     4    1
     9     3    12    1
    10     3    13    1
    11     4    14    1
    12     4    15    1
    13     4     5    1
    14     5     6   am
    15     5     8    1
    16     6     7    2
    17     6    53    1
    18     8    17    1
    19     8    16    1
    20    18    19   ar
    21    18    33    1
    22    18    22   ar
    23    19    20   ar
    24    20    21   ar
    25    21    27    1
    26    21    22   ar
    27    22    23    1
    28    23    24    1
    29    23    25    1
    30    23    92    1
    31    24    28    1
    32    24    29    1
    33    25    26    2
    34    26    27    1
    35    26    30    1
    36    27    93    1
    37    31    32    1
    38    32    37   ar
    39    32    33   ar
    40    33    34   ar
    41    34    35   ar
    42    34    38    1
    43    35    36   ar
    44    35    39    1
    45    36    37   ar
    46    36    41    1
    47    37    40    1
    48    41    42    1
    49    42    43   ar
    50    42    47   ar
    51    43    48    1
    52    43    44   ar
    53    44    49    1
    54    44    45   ar
    55    45    50    1
    56    45    46   ar
    57    46    47   ar
    58    46    51    1
    59    47    52    1
    60    53    54    2
    61    53    56    1
    62    54    55    1
    63    54    58    1
    64    56    57    3
    65    58    84    1
    66    58    59    1
    67    58    88    1
    68    59    64    1
    69    59    65    1
    70    59    60    1
    71    60    61    1
    72    60    66    1
    73    60    67    1
    74    61    62    1
    75    61    69    1
    76    61    68    1
    77    62    63    1
    78    62    75    1
    79    62    70    1
    80    63    71    1
    81    63    72    1
    82    63    64    1
    83    64    73    1
    84    64    74    1
    85    75    78    1
    86    75    79    1
    87    75    76    1
    88    76    77    1
    89    76    80    1
    90    76    81    1
    91    77    78    1
    92    78    83    1
    93    78    82    1
    94    84    85    1
    95    84    87    1
    96    84    86    1
    97    88    90    1
    98    88    89    1
    99    88    91    1
