@<TRIPOS>MOLECULE
UNL
 62 66 0 0 0
SMALL
GASTEIGER

@<TRIPOS>ATOM
      1  N         86.4290   28.3450   16.7190 N.pl3   1  UNL1        0.0000
      2  C         85.0510   28.4700   16.9170 C.ar    1  UNL1        0.0000
      3  N         84.2950   27.3690   16.8910 N.ar    1  UNL1        0.0000
      4  C         82.9860   27.5410   17.1540 C.ar    1  UNL1        0.0000
      5  C         82.0180   26.4950   17.2010 C.ar    1  UNL1        0.0000
      6  C         80.7630   26.9610   17.5120 C.ar    1  UNL1        0.0000
      7  S         80.7520   28.6580   17.7420 S.2     1  UNL1        0.0000
      8  C         82.4370   28.7830   17.4280 C.ar    1  UNL1        0.0000
      9  C         83.2830   29.8820   17.4100 C.ar    1  UNL1        0.0000
     10  N         84.6030   29.7050   17.1780 N.ar    1  UNL1        0.0000
     11  H         86.9970   29.0400   17.1250 H       1  UNL1        0.0000
     12  H         82.2350   25.5020   17.0210 H       1  UNL1        0.0000
     13  H         79.9270   26.3620   17.5960 H       1  UNL1        0.0000
     14  C         88.4910   25.2540   14.6380 C.ar    1  UNL1        0.0000
     15  C         88.1220   26.4390   13.9920 C.ar    1  UNL1        0.0000
     16  C         87.4380   27.4630   14.6610 C.ar    1  UNL1        0.0000
     17  C         87.0870   27.3340   16.0040 C.ar    1  UNL1        0.0000
     18  C         87.4670   26.1700   16.6690 C.ar    1  UNL1        0.0000
     19  C         88.1380   25.1440   15.9920 C.ar    1  UNL1        0.0000
     20  H         88.3620   26.5640   12.9960 H       1  UNL1        0.0000
     21  H         87.1910   28.3260   14.1510 H       1  UNL1        0.0000
     22  H         87.2500   26.0620   17.6720 H       1  UNL1        0.0000
     23  H         88.3820   24.2830   16.5040 H       1  UNL1        0.0000
     24  N         90.3740   21.9930   12.6050 N.4     1  UNL1        0.0000
     25  C         89.6630   23.0860   11.8980 C.3     1  UNL1        0.0000
     26  C         89.7450   24.4370   12.6500 C.3     1  UNL1        0.0000
     27  C         89.8530   21.8860   13.9890 C.3     1  UNL1        0.0000
     28  C         89.9270   23.2170   14.7750 C.3     1  UNL1        0.0000
     29  N         89.2280   24.2660   14.0170 N.pl3   1  UNL1        0.0000
     30  H         91.3710   22.2050   12.6340 H       1  UNL1        0.0000
     31  H         88.6340   22.8150   11.7950 H       1  UNL1        0.0000
     32  H         90.1360   23.2160   10.9470 H       1  UNL1        0.0000
     33  H         89.1590   25.1670   12.1340 H       1  UNL1        0.0000
     34  H         90.7640   24.7620   12.6900 H       1  UNL1        0.0000
     35  H         90.4290   21.1500   14.5110 H       1  UNL1        0.0000
     36  H         88.8200   21.6150   13.9190 H       1  UNL1        0.0000
     37  H         90.9500   23.4950   14.9120 H       1  UNL1        0.0000
     38  H         89.4620   23.0950   15.7310 H       1  UNL1        0.0000
     39  C         90.1970   20.7280   11.8980 C.3     1  UNL1        0.0000
     40  H         91.1460   20.2440   11.7880 H       1  UNL1        0.0000
     41  H         89.7770   20.9150   10.9310 H       1  UNL1        0.0000
     42  H         89.5380   20.0960   12.4570 H       1  UNL1        0.0000
     43  O         82.8150   31.1340   17.7730 O.3     1  UNL1        0.0000
     44  C         82.2560   31.2960   19.0210 C.ar    1  UNL1        0.0000
     45  C         82.1730   30.2830   19.9820 C.ar    1  UNL1        0.0000
     46  C         81.7260   30.5690   21.2750 C.ar    1  UNL1        0.0000
     47  C         81.3350   31.8780   21.5860 C.ar    1  UNL1        0.0000
     48  C         81.4170   32.8910   20.6290 C.ar    1  UNL1        0.0000
     49  C         81.8910   32.6020   19.3520 C.ar    1  UNL1        0.0000
     50  H         82.4430   29.3180   19.7350 H       1  UNL1        0.0000
     51  H         80.9820   32.0960   22.5320 H       1  UNL1        0.0000
     52  H         81.1280   33.8530   20.8680 H       1  UNL1        0.0000
     53  H         81.9720   33.3530   18.6500 H       1  UNL1        0.0000
     54  N         81.6980   29.6220   22.3270 N.am    1  UNL1        0.0000
     55  C         81.0840   28.3850   22.3080 C.2     1  UNL1        0.0000
     56  O         80.3550   27.9350   21.4370 O.2     1  UNL1        0.0000
     57  H         82.1650   29.8710   23.1570 H       1  UNL1        0.0000
     58  C         81.4230   27.5720   23.5120 C.2     1  UNL1        0.0000
     59  C         82.1310   26.4430   23.3780 C.2     1  UNL1        0.0000
     60  H         81.1130   27.8800   24.4470 H       1  UNL1        0.0000
     61  H         82.4400   26.1350   22.4420 H       1  UNL1        0.0000
     62  H         82.3660   25.8790   24.2100 H       1  UNL1        0.0000
@<TRIPOS>BOND
     1     1    17    1
     2     1     2    1
     3     1    11    1
     4     2     3   ar
     5     2    10   ar
     6     3     4   ar
     7     4     5   ar
     8     4     8   ar
     9     5    12    1
    10     5     6   ar
    11     6    13    1
    12     6     7   ar
    13     7     8   ar
    14     8     9   ar
    15     9    10   ar
    16     9    43    1
    17    14    15   ar
    18    14    29    1
    19    14    19   ar
    20    15    20    1
    21    15    16   ar
    22    16    21    1
    23    16    17   ar
    24    17    18   ar
    25    18    19   ar
    26    18    22    1
    27    19    23    1
    28    24    25    1
    29    24    39    1
    30    24    30    1
    31    24    27    1
    32    25    32    1
    33    25    31    1
    34    25    26    1
    35    26    33    1
    36    26    34    1
    37    26    29    1
    38    27    36    1
    39    27    35    1
    40    27    28    1
    41    28    29    1
    42    28    37    1
    43    28    38    1
    44    39    41    1
    45    39    40    1
    46    39    42    1
    47    43    44    1
    48    44    49   ar
    49    44    45   ar
    50    45    50    1
    51    45    46   ar
    52    46    47   ar
    53    46    54    1
    54    47    48   ar
    55    47    51    1
    56    48    49   ar
    57    48    52    1
    58    49    53    1
    59    54    55   am
    60    54    57    1
    61    55    56    2
    62    55    58    1
    63    58    59    2
    64    58    60    1
    65    59    61    1
    66    59    62    1
