@<TRIPOS>MOLECULE
UNL
 44 46 0 0 0
SMALL
GASTEIGER

@<TRIPOS>ATOM
      1  N         89.2720   24.7320   13.6320 N.pl3   1  UNL1       -0.1443
      2  C         89.2450   24.1350   14.8770 C.3     1  UNL1        0.2301
      3  N         88.3710   24.7130   15.6640 N.2     1  UNL1       -0.0578
      4  C         87.8780   25.7160   14.8810 C.2     1  UNL1        0.3356
      5  N         88.4980   25.8490   13.7030 N.pl3   1  UNL1       -0.1334
      6  H         89.8370   23.3360   15.1520 H       1  UNL1        0.1042
      7  C         86.7630   26.5500   15.3180 C.ar    1  UNL1        0.0681
      8  C         85.6340   25.9650   15.9140 C.ar    1  UNL1       -0.0352
      9  C         84.5450   26.7480   16.3270 C.ar    1  UNL1        0.0561
     10  C         84.5960   28.1380   16.1300 C.ar    1  UNL1       -0.0384
     11  C         85.7160   28.7450   15.5390 C.ar    1  UNL1        0.0561
     12  C         86.7890   27.9370   15.1310 C.ar    1  UNL1       -0.0352
     13  H         85.6040   24.9420   16.0500 H       1  UNL1        0.0631
     14  H         83.7980   28.7220   16.4250 H       1  UNL1        0.0629
     15  H         87.6100   28.3730   14.6830 H       1  UNL1        0.0631
     16  C         83.3410   26.1200   16.9880 C.3     1  UNL1        0.4175
     17  F         82.1570   26.6950   16.6390 F       1  UNL1       -0.1659
     18  F         83.2180   24.7980   16.6840 F       1  UNL1       -0.1659
     19  F         83.4010   26.1850   18.3470 F       1  UNL1       -0.1659
     20  C         85.8010   30.2390   15.3500 C.3     1  UNL1        0.4175
     21  F         87.0520   30.7400   15.5480 F       1  UNL1       -0.1659
     22  F         85.4410   30.6220   14.0930 F       1  UNL1       -0.1659
     23  F         84.9860   30.9230   16.1990 F       1  UNL1       -0.1659
     24  C         90.1340   23.1410   11.9300 C.2     1  UNL1        0.0188
     25  C         90.0000   24.3520   12.4990 C.2     1  UNL1        0.0412
     26  H         90.8770   23.0120   11.2260 H       1  UNL1        0.0683
     27  H         90.5100   25.1160   12.0280 H       1  UNL1        0.0820
     28  O         89.3300   21.4030   13.3420 O.2     1  UNL1       -0.2693
     29  C         89.2720   21.9820   12.2620 C.2     1  UNL1        0.2542
     30  N         88.3840   21.6220   11.2820 N.am    1  UNL1       -0.2317
     31  H         88.3710   22.0650   10.4030 H       1  UNL1        0.1731
     32  N         87.4930   20.5800   11.6060 N.pl3   1  UNL1       -0.2470
     33  C         86.6170   20.2400   10.5480 C.ar    1  UNL1        0.1531
     34  N         86.5210   21.0280    9.4470 N.ar    1  UNL1       -0.2360
     35  C         85.5840   20.6600    8.5380 C.ar    1  UNL1        0.0478
     36  C         84.7570   19.5600    8.7090 C.ar    1  UNL1        0.0458
     37  N         84.8320   18.7680    9.7950 N.ar    1  UNL1       -0.2583
     38  C         85.7690   19.1360   10.7050 C.ar    1  UNL1        0.0687
     39  H         87.4820   20.1310   12.4820 H       1  UNL1        0.1716
     40  H         85.4840   21.2230    7.6780 H       1  UNL1        0.0846
     41  H         84.0610   19.3420    7.9790 H       1  UNL1        0.0845
     42  H         85.8620   18.5700   11.5620 H       1  UNL1        0.0865
     43 H          89.8601   23.3081   15.1648 H       1  UNL1        0.1042
     44 H          88.4145   26.5781   13.0467 H       1  UNL1        0.3231
@<TRIPOS>BOND
     1     1    25    1
     2     1     5    1
     3     1     2    1
     4     2     6    1
     5     2     3    1
     6     2    43    1
     7     3     4    2
     8     4     5    1
     9     4     7    1
    10     5    44    1
    11     7    12   ar
    12     7     8   ar
    13     8    13    1
    14     8     9   ar
    15     9    10   ar
    16     9    16    1
    17    10    11   ar
    18    10    14    1
    19    11    12   ar
    20    11    20    1
    21    12    15    1
    22    16    17    1
    23    16    18    1
    24    16    19    1
    25    20    22    1
    26    20    21    1
    27    20    23    1
    28    24    26    1
    29    24    29    1
    30    24    25    2
    31    25    27    1
    32    28    29    2
    33    29    30   am
    34    30    31    1
    35    30    32    1
    36    32    33    1
    37    32    39    1
    38    33    34   ar
    39    33    38   ar
    40    34    35   ar
    41    35    40    1
    42    35    36   ar
    43    36    41    1
    44    36    37   ar
    45    37    38   ar
    46    38    42    1
