@<TRIPOS>MOLECULE
UNL
 42 44 0 0 0
SMALL
GASTEIGER

@<TRIPOS>ATOM
      1  C         84.8810   29.0530   16.4200 C.2     1  UNL1        0.2392
      2  N         85.3100   27.7650   16.1500 N.am    1  UNL1       -0.2938
      3  C         84.2560   26.7390   16.0770 C.3     1  UNL1        0.0307
      4  C         84.3630   25.6940   17.2090 C.3     1  UNL1        0.0256
      5  C         85.7550   25.0560   17.1250 C.3     1  UNL1       -0.0343
      6  C         86.8590   26.1100   17.1820 C.3     1  UNL1       -0.0331
      7  C         86.6930   27.2110   16.1100 C.3     1  UNL1        0.0236
      8  O         83.7340   29.3240   16.7800 O.2     1  UNL1       -0.2706
      9  H         84.3340   26.2340   15.1360 H       1  UNL1        0.0480
     10  H         83.3140   27.2340   16.1820 H       1  UNL1        0.0480
     11  H         83.6110   24.9410   17.0980 H       1  UNL1        0.0476
     12  H         85.8360   24.5180   16.2030 H       1  UNL1        0.0281
     13  H         85.8740   24.4000   17.9630 H       1  UNL1        0.0281
     14  H         87.8010   25.6270   17.0320 H       1  UNL1        0.0284
     15  H         86.8030   26.5830   18.1410 H       1  UNL1        0.0284
     16  H         86.7470   26.8650   15.0990 H       1  UNL1        0.0498
     17  N         84.1520   26.3310   18.5150 N.3     1  UNL1       -0.2872
     18  C         82.8680   26.8000   18.7900 C.3     1  UNL1        0.1312
     19  N         81.7910   26.2190   18.2030 N.2     1  UNL1       -0.2528
     20  C         80.5580   26.6700   18.5030 C.2     1  UNL1        0.0832
     21  N         80.2170   27.6750   19.3210 N.pl3   1  UNL1       -0.2919
     22  C         81.3040   28.2310   19.8770 C.ar    1  UNL1        0.1076
     23  C         82.6260   27.8650   19.6800 C.ar    1  UNL1        0.0306
     24  C         83.4100   28.7390   20.4900 C.ar    1  UNL1       -0.0360
     25  C         82.5480   29.6050   21.1330 C.ar    1  UNL1        0.0037
     26  N         81.2720   29.2810   20.7510 N.ar    1  UNL1       -0.3492
     27  H         84.8840   26.4230   19.1670 H       1  UNL1        0.1245
     28  H         79.7750   26.1790   18.0420 H       1  UNL1        0.0997
     29  H         84.4380   28.7260   20.5790 H       1  UNL1        0.0637
     30  H         82.8160   30.3590   21.7840 H       1  UNL1        0.0807
     31  H         80.4560   29.7370   21.0590 H       1  UNL1        0.1665
     32  C         85.9320   30.6840   14.9530 C.2     1  UNL1       -0.0938
     33  C         85.8210   30.1630   16.1820 C.2     1  UNL1       -0.0067
     34  H         86.5880   31.4630   14.7790 H       1  UNL1        0.0536
     35  H         85.3630   30.3080   14.1790 H       1  UNL1        0.0536
     36  H         86.3890   30.5380   16.9580 H       1  UNL1        0.0663
     37  C         87.8840   28.1600   16.2590 C.3     1  UNL1       -0.0464
     38  H         88.7350   27.6130   16.6090 H       1  UNL1        0.0248
     39  H         87.6410   28.9280   16.9630 H       1  UNL1        0.0248
     40  H         88.1090   28.6030   15.3120 H       1  UNL1        0.0248
     41 H          83.9179   27.0009   18.7429 H       1  UNL1        0.0766
     42 H          79.2922   27.9665   19.4913 H       1  UNL1        0.1544
@<TRIPOS>BOND
     1     1     2   am
     2     1    33    1
     3     1     8    2
     4     2     3    1
     5     2     7    1
     6     3     9    1
     7     3    10    1
     8     3     4    1
     9     4    11    1
    10     4     5    1
    11     4    17    1
    12     5    12    1
    13     5     6    1
    14     5    13    1
    15     6     7    1
    16     6    14    1
    17     6    15    1
    18     7    16    1
    19     7    37    1
    20    17    18    1
    21    17    27    1
    22    18    19    1
    23    18    23    1
    24    18    41    1
    25    19    20    2
    26    20    28    1
    27    20    21    1
    28    21    22    1
    29    21    42    1
    30    22    23   ar
    31    22    26   ar
    32    23    24   ar
    33    24    29    1
    34    24    25   ar
    35    25    26   ar
    36    25    30    1
    37    26    31    1
    38    32    35    1
    39    32    34    1
    40    32    33    2
    41    33    36    1
    42    37    40    1
    43    37    38    1
    44    37    39    1
