@<TRIPOS>MOLECULE
UNL
 53 56 0 0 0
SMALL
GASTEIGER

@<TRIPOS>ATOM
      1  N         85.1180   26.9320   17.8360 N.ar    1  UNL1        0.0000
      2  C         85.3390   28.0140   17.0170 C.ar    1  UNL1        0.0000
      3  N         84.7380   29.2160   17.0790 N.ar    1  UNL1        0.0000
      4  C         85.1870   30.0380   16.1140 C.ar    1  UNL1        0.0000
      5  N         86.1200   29.7840   15.1750 N.ar    1  UNL1        0.0000
      6  C         86.7070   28.5690   15.1590 C.ar    1  UNL1        0.0000
      7  C         86.3060   27.6240   16.1070 C.ar    1  UNL1        0.0000
      8  C         86.5980   26.2930   16.4660 C.ar    1  UNL1        0.0000
      9  N         85.8960   25.8650   17.5230 N.ar    1  UNL1        0.0000
     10  H         84.7640   30.9790   16.0900 H       1  UNL1        0.0000
     11  O         81.0800   29.6530   20.9780 O.2     1  UNL1        0.0000
     12  C         81.2310   28.8920   20.0260 C.2     1  UNL1        0.0000
     13  N         82.3300   28.0740   19.8840 N.am    1  UNL1        0.0000
     14  C         83.3580   28.0310   20.9010 C.3     1  UNL1        0.0000
     15  C         84.6400   27.8020   20.1250 C.3     1  UNL1        0.0000
     16  C         84.2010   26.9050   18.9590 C.3     1  UNL1        0.0000
     17  C         82.7670   27.3860   18.6690 C.3     1  UNL1        0.0000
     18  H         83.1810   27.2300   21.5870 H       1  UNL1        0.0000
     19  H         83.3910   28.9240   21.4900 H       1  UNL1        0.0000
     20  H         85.3710   27.3080   20.7320 H       1  UNL1        0.0000
     21  H         85.0990   28.7120   19.7990 H       1  UNL1        0.0000
     22  H         84.2140   25.8600   19.1890 H       1  UNL1        0.0000
     23  H         82.7610   28.0580   17.8360 H       1  UNL1        0.0000
     24  H         82.1200   26.5720   18.4200 H       1  UNL1        0.0000
     25  C         80.2060   28.7960   18.9560 C.2     1  UNL1        0.0000
     26  C         79.8500   29.8810   18.2550 C.2     1  UNL1        0.0000
     27  H         79.7640   27.8870   18.7510 H       1  UNL1        0.0000
     28  H         80.2890   30.7930   18.4570 H       1  UNL1        0.0000
     29  H         79.1360   29.8050   17.5140 H       1  UNL1        0.0000
     30  N         87.6760   28.3520   14.1920 N.pl3   1  UNL1        0.0000
     31  H         88.2470   29.0970   13.8910 H       1  UNL1        0.0000
     32  H         87.7940   27.4550   13.8060 H       1  UNL1        0.0000
     33  C         87.5160   25.4040   15.8320 C.1     1  UNL1        0.0000
     34  C         88.3220   24.7240   15.2500 C.1     1  UNL1        0.0000
     35  C         89.2970   23.9620   14.5260 C.ar    1  UNL1        0.0000
     36  C         89.6440   22.6760   14.9580 C.ar    1  UNL1        0.0000
     37  C         90.6000   21.9400   14.2560 C.ar    1  UNL1        0.0000
     38  C         91.2100   22.4970   13.1260 C.ar    1  UNL1        0.0000
     39  C         90.8740   23.7800   12.6920 C.ar    1  UNL1        0.0000
     40  C         89.9150   24.5090   13.3980 C.ar    1  UNL1        0.0000
     41  H         89.1920   22.2730   15.7940 H       1  UNL1        0.0000
     42  H         91.9170   21.9510   12.6070 H       1  UNL1        0.0000
     43  H         89.6620   25.4590   13.0850 H       1  UNL1        0.0000
     44  O         91.0320   20.6770   14.5580 O.3     1  UNL1        0.0000
     45  C         92.0530   20.5540   15.5390 C.3     1  UNL1        0.0000
     46  H         91.6080   20.3860   16.4970 H       1  UNL1        0.0000
     47  H         92.6310   21.4540   15.5660 H       1  UNL1        0.0000
     48  H         92.6890   19.7300   15.2900 H       1  UNL1        0.0000
     49  O         91.4070   24.4210   11.6060 O.3     1  UNL1        0.0000
     50  C         91.2190   25.8300   11.5370 C.3     1  UNL1        0.0000
     51  H         90.4060   26.0490   10.8750 H       1  UNL1        0.0000
     52  H         92.1110   26.2920   11.1700 H       1  UNL1        0.0000
     53  H         90.9960   26.2090   12.5120 H       1  UNL1        0.0000
@<TRIPOS>BOND
     1     1     2   ar
     2     1     9   ar
     3     1    16    1
     4     2     7   ar
     5     2     3   ar
     6     3     4   ar
     7     4     5   ar
     8     4    10    1
     9     5     6   ar
    10     6    30    1
    11     6     7   ar
    12     7     8   ar
    13     8    33    1
    14     8     9   ar
    15    11    12    2
    16    12    25    1
    17    12    13   am
    18    13    17    1
    19    13    14    1
    20    14    15    1
    21    14    19    1
    22    14    18    1
    23    15    16    1
    24    15    21    1
    25    15    20    1
    26    16    17    1
    27    16    22    1
    28    17    23    1
    29    17    24    1
    30    25    26    2
    31    25    27    1
    32    26    29    1
    33    26    28    1
    34    30    32    1
    35    30    31    1
    36    33    34    3
    37    34    35    1
    38    35    40   ar
    39    35    36   ar
    40    36    37   ar
    41    36    41    1
    42    37    38   ar
    43    37    44    1
    44    38    42    1
    45    38    39   ar
    46    39    49    1
    47    39    40   ar
    48    40    43    1
    49    44    45    1
    50    45    48    1
    51    45    47    1
    52    45    46    1
    53    49    50    1
    54    50    51    1
    55    50    52    1
    56    50    53    1
