@<TRIPOS>MOLECULE
UNL
 80 85 0 0 0
SMALL
GASTEIGER

@<TRIPOS>ATOM
      1  C         82.5380   24.8060   21.0860 C.1     1  UNL1        0.3092
      2  N         81.3720   25.3980   21.3770 N.2     1  UNL1       -0.1712
      3  C         81.0990   26.5430   20.7070 C.3     1  UNL1        0.1099
      4  C         81.9530   27.0470   19.7220 C.2     1  UNL1        0.0498
      5  C         81.6740   28.4050   19.1510 C.3     1  UNL1       -0.0059
      6  C         80.2250   28.8140   19.2100 C.3     1  UNL1        0.0163
      7  N         79.6740   28.6450   20.5430 N.pl3   1  UNL1       -0.3267
      8  C         79.7800   27.2490   21.0460 C.3     1  UNL1        0.0396
      9  C         83.1190   26.3350   19.4450 C.2     1  UNL1        0.3292
     10  N         83.4050   25.2220   20.1460 N.2     1  UNL1        0.0495
     11  N         84.0300   26.6780   18.4620 N.pl3   1  UNL1       -0.2165
     12  C         83.6520   27.3240   17.2040 C.3     1  UNL1        0.0964
     13  C         84.4720   26.7710   16.0420 C.3     1  UNL1        0.0516
     14  N         85.8990   26.9500   16.3140 N.am    1  UNL1       -0.2845
     15  C         86.3170   26.1760   17.5410 C.3     1  UNL1        0.0751
     16  C         85.4700   26.6340   18.7800 C.3     1  UNL1        0.1001
     17  C         86.6920   27.8920   15.6690 C.2     1  UNL1        0.2747
     18  O         87.9060   27.9690   15.8600 O.2     1  UNL1       -0.2675
     19  H         81.9820   28.4080   18.1260 H       1  UNL1        0.0328
     20  H         82.2160   29.1060   19.7490 H       1  UNL1        0.0328
     21  H         79.6670   28.2110   18.5250 H       1  UNL1        0.0467
     22  H         80.1610   29.8500   18.9500 H       1  UNL1        0.0467
     23  H         79.6770   27.2700   22.1110 H       1  UNL1        0.0488
     24  H         79.0060   26.6930   20.5600 H       1  UNL1        0.0488
     25  H         83.8250   28.3770   17.2860 H       1  UNL1        0.0742
     26  H         82.6170   27.1300   17.0160 H       1  UNL1        0.0742
     27  H         84.2130   27.2920   15.1440 H       1  UNL1        0.0502
     28  H         84.2620   25.7280   15.9270 H       1  UNL1        0.0502
     29  H         86.1050   25.1580   17.2860 H       1  UNL1        0.0548
     30  H         85.6290   25.9470   19.5840 H       1  UNL1        0.0745
     31  H         85.7840   27.6200   19.0560 H       1  UNL1        0.0745
     32  C         79.5650   29.7760   21.3660 C.ar    1  UNL1        0.0390
     33  C         78.8990   29.6220   22.6050 C.ar    1  UNL1       -0.0400
     34  C         78.7570   30.6610   23.5120 C.ar    1  UNL1       -0.0594
     35  C         79.3370   31.8840   23.2390 C.ar    1  UNL1       -0.0539
     36  C         80.0500   32.1030   22.0580 C.ar    1  UNL1       -0.0147
     37  C         80.1450   31.0970   21.0430 C.ar    1  UNL1        0.0214
     38  C         80.7940   31.5840   19.8390 C.ar    1  UNL1        0.0504
     39  C         81.4750   32.8150   19.7710 C.ar    1  UNL1       -0.0427
     40  C         81.4040   33.7090   20.8190 C.ar    1  UNL1       -0.0598
     41  C         80.6500   33.3670   21.9290 C.ar    1  UNL1       -0.0539
     42 CL         80.6670   30.8190   18.2770 Cl      1  UNL1       -0.0829
     43  H         78.5020   28.7000   22.8420 H       1  UNL1        0.0636
     44  H         78.2240   30.5210   24.3840 H       1  UNL1        0.0618
     45  H         79.2420   32.6520   23.9220 H       1  UNL1        0.0624
     46  H         82.0290   33.0500   18.9330 H       1  UNL1        0.0632
     47  H         81.9020   34.6120   20.7770 H       1  UNL1        0.0618
     48  H         80.5250   34.0610   22.6830 H       1  UNL1        0.0624
     49  C         86.0580   28.8540   14.6930 C.2     1  UNL1        0.1779
     50  C         85.5580   30.0420   15.0500 C.2     1  UNL1       -0.0581
     51  F         85.9150   28.4490   13.4140 F       1  UNL1       -0.2007
     52  H         85.6560   30.3720   16.0220 H       1  UNL1        0.0565
     53  H         85.0730   30.6280   14.3530 H       1  UNL1        0.0565
     54  C         87.8210   26.1160   17.8720 C.3     1  UNL1        0.0569
     55  H         87.9360   25.8450   18.9010 H       1  UNL1        0.0437
     56  H         88.2380   27.0810   17.6740 H       1  UNL1        0.0437
     57  C         88.5420   25.1280   17.0350 C.1     1  UNL1        0.0645
     58  N         89.0980   24.3770   16.3590 N.1     1  UNL1       -0.1965
     59  O         82.8390   23.6690   21.8230 O.2     1  UNL1       -0.4169
     60  C         81.6700   23.1850   22.4990 C.3     1  UNL1        0.0928
     61  H         81.4100   23.8790   23.2710 H       1  UNL1        0.0692
     62  H         80.8920   23.0920   21.7710 H       1  UNL1        0.0692
     63  N         81.0710   20.7480   22.4810 N.4     1  UNL1        0.3819
     64  C         81.6670   19.4730   22.8700 C.3     1  UNL1       -0.0905
     65  C         83.1550   19.7490   22.7590 C.3     1  UNL1       -0.0694
     66  C         83.3070   21.2540   22.9800 C.3     1  UNL1       -0.0638
     67  C         81.8810   21.7950   23.1350 C.3     1  UNL1       -0.0424
     68  H         81.0890   20.8840   21.4700 H       1  UNL1       -0.0817
     69  H         81.3700   18.6900   22.2050 H       1  UNL1        0.0059
     70  H         81.3690   19.1470   23.8450 H       1  UNL1        0.0059
     71  H         83.5150   19.4750   21.7890 H       1  UNL1        0.0247
     72  H         83.7190   19.1830   23.4710 H       1  UNL1        0.0247
     73  H         83.7900   21.7080   22.1410 H       1  UNL1        0.0250
     74  H         83.9070   21.4690   23.8410 H       1  UNL1        0.0250
     75  H         81.6180   21.9670   24.1580 H       1  UNL1        0.0127
     76  C         79.6520   20.8040   22.8110 C.3     1  UNL1       -0.1027
     77  H         79.5260   21.2920   23.7540 H       1  UNL1        0.0024
     78  H         79.2600   19.8110   22.8680 H       1  UNL1        0.0024
     79  H         79.1310   21.3500   22.0530 H       1  UNL1        0.0024
     80 H          82.0292   27.0260   20.4918 H       1  UNL1        0.0619
@<TRIPOS>BOND
     1     1    10    2
     2     1     2    2
     3     1    59    1
     4     2     3    1
     5     3     4    1
     6     3     8    1
     7     3    80    1
     8     4     5    1
     9     4     9    2
    10     5    19    1
    11     5     6    1
    12     5    20    1
    13     6    21    1
    14     6    22    1
    15     6     7    1
    16     7     8    1
    17     7    32    1
    18     8    24    1
    19     8    23    1
    20     9    11    1
    21     9    10    1
    22    11    12    1
    23    11    16    1
    24    12    13    1
    25    12    26    1
    26    12    25    1
    27    13    27    1
    28    13    28    1
    29    13    14    1
    30    14    17   am
    31    14    15    1
    32    15    29    1
    33    15    54    1
    34    15    16    1
    35    16    31    1
    36    16    30    1
    37    17    49    1
    38    17    18    2
    39    32    37   ar
    40    32    33   ar
    41    33    43    1
    42    33    34   ar
    43    34    35   ar
    44    34    44    1
    45    35    36   ar
    46    35    45    1
    47    36    37   ar
    48    36    41   ar
    49    37    38   ar
    50    38    42    1
    51    38    39   ar
    52    39    46    1
    53    39    40   ar
    54    40    47    1
    55    40    41   ar
    56    41    48    1
    57    49    51    1
    58    49    50    2
    59    50    53    1
    60    50    52    1
    61    54    57    1
    62    54    56    1
    63    54    55    1
    64    57    58    3
    65    59    60    1
    66    60    62    1
    67    60    67    1
    68    60    61    1
    69    63    68    1
    70    63    76    1
    71    63    64    1
    72    63    67    1
    73    64    69    1
    74    64    65    1
    75    64    70    1
    76    65    71    1
    77    65    66    1
    78    65    72    1
    79    66    73    1
    80    66    67    1
    81    66    74    1
    82    67    75    1
    83    76    79    1
    84    76    78    1
    85    76    77    1
