@<TRIPOS>MOLECULE
UNL
 87 90 0 0 0
SMALL
GASTEIGER

@<TRIPOS>ATOM
      1  C         82.6400   29.4550   17.2010 C.ar    1  UNL1        0.1581
      2  C         82.1540   28.1660   16.9590 C.ar    1  UNL1        0.1355
      3  C         83.0460   27.2410   16.3860 C.ar    1  UNL1        0.0015
      4  C         84.3580   27.5530   16.0220 C.ar    1  UNL1        0.0582
      5  C         84.8270   28.8740   16.1710 C.ar    1  UNL1        0.0546
      6  C         83.9410   29.7990   16.7670 C.ar    1  UNL1        0.0062
      7  H         82.7120   26.2770   16.2250 H       1  UNL1        0.0671
      8  H         84.2590   30.7740   16.8900 H       1  UNL1        0.0674
      9  N         80.8650   27.7160   17.3760 N.pl3   1  UNL1       -0.1983
     10  C         80.3150   28.0730   18.6210 C.cat   1  UNL1        0.4181
     11  N         81.0140   27.8630   19.7380 N.2     1  UNL1       -0.1068
     12  C         80.5780   28.3930   20.9200 C.3     1  UNL1        0.1425
     13  C         79.4470   29.1790   20.9630 C.3     1  UNL1        0.1441
     14  C         78.7570   29.2740   19.7710 C.2     1  UNL1        0.1006
     15  N         79.1440   28.7140   18.6010 N.2     1  UNL1       -0.0834
     16  H         80.3450   27.1370   16.7730 H       1  UNL1        0.2516
     17  H         77.8780   29.8140   19.7710 H       1  UNL1        0.0985
     18  C         81.3220   27.8150   22.0970 C.3     1  UNL1        0.0397
     19  C         82.7180   28.0080   22.0290 C.3     1  UNL1        0.0221
     20  N         83.0820   26.9260   21.2260 N.pl3   1  UNL1       -0.3320
     21  C         82.4060   25.8390   21.7370 C.ar    1  UNL1        0.0331
     22  C         81.3370   26.4080   22.4530 C.ar    1  UNL1       -0.0184
     23  C         80.5290   25.5630   23.2360 C.ar    1  UNL1       -0.0564
     24  C         80.7800   24.1880   23.2360 C.ar    1  UNL1       -0.0614
     25  C         81.7850   23.6470   22.4340 C.ar    1  UNL1       -0.0600
     26  C         82.6120   24.4600   21.6490 C.ar    1  UNL1       -0.0404
     27  H         83.3060   28.7430   22.4530 H       1  UNL1        0.0471
     28  H         79.7610   25.9540   23.8020 H       1  UNL1        0.0621
     29  H         80.2160   23.5670   23.8360 H       1  UNL1        0.0618
     30  H         81.9240   22.6240   22.4200 H       1  UNL1        0.0618
     31  H         83.3390   24.0610   21.0350 H       1  UNL1        0.0636
     32  C         83.6220   27.0710   19.8930 C.3     1  UNL1        0.0007
     33  H         82.8530   27.4100   19.2310 H       1  UNL1        0.0428
     34  H         83.9950   26.1270   19.5550 H       1  UNL1        0.0428
     35  H         84.4200   27.7840   19.9080 H       1  UNL1        0.0428
     36  C         78.9910   29.9700   22.1140 C.2     1  UNL1        0.3207
     37  O         78.7600   29.5040   23.2110 O.2     1  UNL1       -0.2499
     38  O         78.9660   31.2950   21.7870 O.3     1  UNL1       -0.4613
     39  C         80.2350   31.9770   21.8610 C.3     1  UNL1        0.0975
     40  H         81.0190   31.3230   21.5430 H       1  UNL1        0.0728
     41  C         80.4400   32.4140   23.3100 C.3     1  UNL1       -0.0280
     42  H         79.9770   31.7050   23.9650 H       1  UNL1        0.0265
     43  H         79.9980   33.3770   23.4570 H       1  UNL1        0.0265
     44  H         81.4870   32.4660   23.5220 H       1  UNL1        0.0265
     45  C         80.2480   33.2020   20.9470 C.3     1  UNL1       -0.0280
     46  H         79.5980   33.0320   20.1130 H       1  UNL1        0.0265
     47  H         81.2430   33.3740   20.5940 H       1  UNL1        0.0265
     48  H         79.9100   34.0580   21.4930 H       1  UNL1        0.0265
     49  N         85.2610   26.5480   15.5960 N.am    1  UNL1       -0.2804
     50  C         85.8100   25.5400   16.3620 C.2     1  UNL1        0.2406
     51  O         85.5330   25.2480   17.5210 O.2     1  UNL1       -0.2705
     52  H         85.5270   26.5720   14.6500 H       1  UNL1        0.1552
     53  C         86.8530   24.7720   15.6320 C.2     1  UNL1       -0.0066
     54  C         87.7360   25.4170   14.8560 C.2     1  UNL1       -0.0938
     55  H         86.8970   23.7450   15.7220 H       1  UNL1        0.0663
     56  H         87.6920   26.4440   14.7680 H       1  UNL1        0.0536
     57  H         88.4610   24.8860   14.3490 H       1  UNL1        0.0536
     58  N         86.1500   29.2290   15.7460 N.pl3   1  UNL1       -0.3332
     59  C         86.6350   28.4710   14.5830 C.3     1  UNL1        0.0006
     60  H         86.1340   27.5270   14.5390 H       1  UNL1        0.0428
     61  H         87.6890   28.3130   14.6760 H       1  UNL1        0.0428
     62  H         86.4340   29.0240   13.6890 H       1  UNL1        0.0428
     63  C         87.0940   29.2660   16.9130 C.3     1  UNL1       -0.0029
     64  H         86.5230   29.1790   17.8140 H       1  UNL1        0.0445
     65  H         87.6270   30.1930   16.8610 H       1  UNL1        0.0445
     66  C         88.1510   28.1250   16.8860 C.3     1  UNL1       -0.0752
     67  H         89.0620   28.5280   16.4950 H       1  UNL1        0.0074
     68  H         87.7300   27.3480   16.2810 H       1  UNL1        0.0074
     69  N         88.4510   27.5020   18.1930 N.4     1  UNL1        0.3770
     70  H         89.1790   28.0620   18.6370 H       1  UNL1       -0.0826
     71  C         88.9250   26.1260   17.9970 C.3     1  UNL1       -0.1035
     72  H         88.3880   25.6760   17.1890 H       1  UNL1        0.0023
     73  H         88.7620   25.5630   18.8910 H       1  UNL1        0.0023
     74  H         89.9710   26.1390   17.7690 H       1  UNL1        0.0023
     75  C         87.2870   27.4950   19.0800 C.3     1  UNL1       -0.1035
     76  H         86.5490   28.1740   18.7060 H       1  UNL1        0.0023
     77  H         87.5850   27.8000   20.0620 H       1  UNL1        0.0023
     78  H         86.8750   26.5080   19.1220 H       1  UNL1        0.0023
     79  O         81.9850   30.5070   17.7910 O.3     1  UNL1       -0.4918
     80  C         82.5070   31.0200   19.0080 C.3     1  UNL1        0.0789
     81  H         83.5750   30.9690   18.9880 H       1  UNL1        0.0660
     82  H         82.1380   30.4400   19.8280 H       1  UNL1        0.0660
     83  H         82.2010   32.0390   19.1260 H       1  UNL1        0.0660
     84 H          80.6207   29.4269   21.1924 H       1  UNL1        0.0748
     85 H          79.3506   28.8440   21.9746 H       1  UNL1        0.0522
     86 H          80.7159   28.3528   22.7957 H       1  UNL1        0.0400
     87 H          83.3240   28.7702   22.4726 H       1  UNL1        0.0471
@<TRIPOS>BOND
     1     1     6   ar
     2     1     2   ar
     3     1    79    1
     4     2     3   ar
     5     2     9    1
     6     3     4   ar
     7     3     7    1
     8     4    49    1
     9     4     5   ar
    10     5    58    1
    11     5     6   ar
    12     6     8    1
    13     9    16    1
    14     9    10    1
    15    10    15    1
    16    10    11    2
    17    11    12    1
    18    12    13    1
    19    12    18    1
    20    12    84    1
    21    13    14    1
    22    13    36    1
    23    13    85    1
    24    14    15    2
    25    14    17    1
    26    18    19    1
    27    18    22    1
    28    18    86    1
    29    19    20    1
    30    19    27    1
    31    19    87    1
    32    20    32    1
    33    20    21    1
    34    21    26   ar
    35    21    22   ar
    36    22    23   ar
    37    23    24   ar
    38    23    28    1
    39    24    25   ar
    40    24    29    1
    41    25    26   ar
    42    25    30    1
    43    26    31    1
    44    32    33    1
    45    32    34    1
    46    32    35    1
    47    36    38    1
    48    36    37    2
    49    38    39    1
    50    39    45    1
    51    39    40    1
    52    39    41    1
    53    41    43    1
    54    41    44    1
    55    41    42    1
    56    45    46    1
    57    45    47    1
    58    45    48    1
    59    49    52    1
    60    49    50   am
    61    50    53    1
    62    50    51    2
    63    53    54    2
    64    53    55    1
    65    54    57    1
    66    54    56    1
    67    58    59    1
    68    58    63    1
    69    59    62    1
    70    59    60    1
    71    59    61    1
    72    63    65    1
    73    63    66    1
    74    63    64    1
    75    66    68    1
    76    66    67    1
    77    66    69    1
    78    69    71    1
    79    69    70    1
    80    69    75    1
    81    71    72    1
    82    71    74    1
    83    71    73    1
    84    75    76    1
    85    75    78    1
    86    75    77    1
    87    79    80    1
    88    80    81    1
    89    80    83    1
    90    80    82    1
