@<TRIPOS>MOLECULE
UNL
 76 80 0 0 0
SMALL
GASTEIGER

@<TRIPOS>ATOM
      1  N         87.2940   28.7880   14.7960 N.pl3   1  UNL1        0.0000
      2  C         86.2000   29.2750   15.5140 C.ar    1  UNL1        0.0000
      3  N         85.6810   28.5490   16.5170 N.ar    1  UNL1        0.0000
      4  C         84.5910   29.0260   17.1600 C.ar    1  UNL1        0.0000
      5  C         84.0170   30.2330   16.8330 C.ar    1  UNL1        0.0000
      6  C         84.6310   30.9170   15.8110 C.ar    1  UNL1        0.0000
      7  N         85.7100   30.4650   15.1410 N.ar    1  UNL1        0.0000
      8  H         87.8480   29.4590   14.3360 H       1  UNL1        0.0000
      9  H         83.1850   30.6000   17.3210 H       1  UNL1        0.0000
     10  H         84.2410   31.8330   15.5390 H       1  UNL1        0.0000
     11  C         88.4830   26.9850   13.5920 C.ar    1  UNL1        0.0000
     12  C         87.6970   27.4460   14.6570 C.ar    1  UNL1        0.0000
     13  C         87.3990   26.5300   15.6830 C.ar    1  UNL1        0.0000
     14  C         87.9650   25.2500   15.7350 C.ar    1  UNL1        0.0000
     15  C         88.7630   24.7660   14.6780 C.ar    1  UNL1        0.0000
     16  C         88.9880   25.6710   13.6200 C.ar    1  UNL1        0.0000
     17  H         86.7400   26.8130   16.4240 H       1  UNL1        0.0000
     18  H         89.5560   25.3510   12.8190 H       1  UNL1        0.0000
     19  N         89.2760   23.4810   14.5920 N.pl3   1  UNL1        0.0000
     20  C         90.4230   23.0870   15.4390 C.3     1  UNL1        0.0000
     21  C         91.5790   22.5550   14.5690 C.3     1  UNL1        0.0000
     22  O         91.1620   21.5210   13.6630 O.3     1  UNL1        0.0000
     23  C         90.1180   22.0110   12.8020 C.3     1  UNL1        0.0000
     24  C         88.9000   22.4330   13.6340 C.3     1  UNL1        0.0000
     25  H         90.1110   22.3220   16.1180 H       1  UNL1        0.0000
     26  H         90.7640   23.9450   15.9810 H       1  UNL1        0.0000
     27  H         92.3380   22.1600   15.2120 H       1  UNL1        0.0000
     28  H         91.9440   23.3710   13.9810 H       1  UNL1        0.0000
     29  H         89.8300   21.2380   12.1210 H       1  UNL1        0.0000
     30  H         90.4810   22.8590   12.2600 H       1  UNL1        0.0000
     31  H         88.1400   22.8080   12.9800 H       1  UNL1        0.0000
     32  H         88.5340   21.5830   14.1710 H       1  UNL1        0.0000
     33  N         87.9120   24.5640   16.9560 N.am    1  UNL1        0.0000
     34  C         88.4530   24.8050   18.1720 C.2     1  UNL1        0.0000
     35  O         88.3750   23.9250   19.0380 O.2     1  UNL1        0.0000
     36  H         87.3720   23.7410   16.9210 H       1  UNL1        0.0000
     37  C         89.0030   26.1440   18.4710 C.2     1  UNL1        0.0000
     38  C         88.1730   27.1220   18.8580 C.2     1  UNL1        0.0000
     39  H         90.0150   26.3230   18.3830 H       1  UNL1        0.0000
     40  H         87.1610   26.9360   18.9440 H       1  UNL1        0.0000
     41  H         88.5450   28.0620   19.0700 H       1  UNL1        0.0000
     42  O         88.9730   27.7150   12.5380 O.3     1  UNL1        0.0000
     43  C         90.2100   27.3070   11.9820 C.3     1  UNL1        0.0000
     44  H         90.7760   28.1710   11.7000 H       1  UNL1        0.0000
     45  H         90.0310   26.7010   11.1180 H       1  UNL1        0.0000
     46  H         90.7580   26.7420   12.7060 H       1  UNL1        0.0000
     47  N         84.0370   28.2380   18.2150 N.ar    1  UNL1        0.0000
     48  N         82.9080   27.5080   18.0690 N.ar    1  UNL1        0.0000
     49  C         82.6500   26.9890   19.2890 C.ar    1  UNL1        0.0000
     50  C         83.6660   27.3770   20.2280 C.ar    1  UNL1        0.0000
     51  C         84.5500   28.1310   19.4830 C.ar    1  UNL1        0.0000
     52  H         85.4360   28.5400   19.8190 H       1  UNL1        0.0000
     53  C         81.4660   26.1350   19.4890 C.ar    1  UNL1        0.0000
     54  C         80.3270   26.3050   18.6820 C.ar    1  UNL1        0.0000
     55  C         79.2100   25.4750   18.8270 C.ar    1  UNL1        0.0000
     56  C         79.2120   24.4590   19.7780 C.ar    1  UNL1        0.0000
     57  C         80.3230   24.2860   20.5970 C.ar    1  UNL1        0.0000
     58  C         81.4310   25.1280   20.4630 C.ar    1  UNL1        0.0000
     59  H         80.3160   27.0530   17.9720 H       1  UNL1        0.0000
     60  H         78.3830   25.6170   18.2260 H       1  UNL1        0.0000
     61  H         78.3940   23.8350   19.8740 H       1  UNL1        0.0000
     62  H         80.3290   23.5350   21.3060 H       1  UNL1        0.0000
     63  H         82.2400   25.0050   21.0930 H       1  UNL1        0.0000
     64  C         83.8120   27.0950   21.6930 C.3     1  UNL1        0.0000
     65  H         84.8130   27.3280   21.9890 H       1  UNL1        0.0000
     66  H         83.5860   26.0610   21.8480 H       1  UNL1        0.0000
     67  N         82.8820   27.8810   22.5110 N.4     1  UNL1        0.0000
     68  H         82.1880   28.2840   21.8820 H       1  UNL1        0.0000
     69  C         82.1660   27.0560   23.4860 C.3     1  UNL1        0.0000
     70  H         81.2570   27.5440   23.7670 H       1  UNL1        0.0000
     71  H         82.7780   26.9170   24.3530 H       1  UNL1        0.0000
     72  H         81.9410   26.1040   23.0520 H       1  UNL1        0.0000
     73  C         83.6070   28.9500   23.2030 C.3     1  UNL1        0.0000
     74  H         84.3630   29.3440   22.5560 H       1  UNL1        0.0000
     75  H         84.0630   28.5570   24.0870 H       1  UNL1        0.0000
     76  H         82.9240   29.7300   23.4700 H       1  UNL1        0.0000
@<TRIPOS>BOND
     1     1     8    1
     2     1    12    1
     3     1     2    1
     4     2     7   ar
     5     2     3   ar
     6     3     4   ar
     7     4     5   ar
     8     4    47    1
     9     5     6   ar
    10     5     9    1
    11     6     7   ar
    12     6    10    1
    13    11    42    1
    14    11    16   ar
    15    11    12   ar
    16    12    13   ar
    17    13    14   ar
    18    13    17    1
    19    14    15   ar
    20    14    33    1
    21    15    16   ar
    22    15    19    1
    23    16    18    1
    24    19    24    1
    25    19    20    1
    26    20    21    1
    27    20    26    1
    28    20    25    1
    29    21    22    1
    30    21    28    1
    31    21    27    1
    32    22    23    1
    33    23    29    1
    34    23    30    1
    35    23    24    1
    36    24    31    1
    37    24    32    1
    38    33    36    1
    39    33    34   am
    40    34    37    1
    41    34    35    2
    42    37    39    1
    43    37    38    2
    44    38    40    1
    45    38    41    1
    46    42    43    1
    47    43    45    1
    48    43    44    1
    49    43    46    1
    50    47    48   ar
    51    47    51   ar
    52    48    49   ar
    53    49    53    1
    54    49    50   ar
    55    50    51   ar
    56    50    64    1
    57    51    52    1
    58    53    54   ar
    59    53    58   ar
    60    54    59    1
    61    54    55   ar
    62    55    60    1
    63    55    56   ar
    64    56    61    1
    65    56    57   ar
    66    57    58   ar
    67    57    62    1
    68    58    63    1
    69    64    66    1
    70    64    65    1
    71    64    67    1
    72    67    68    1
    73    67    73    1
    74    67    69    1
    75    69    72    1
    76    69    70    1
    77    69    71    1
    78    73    74    1
    79    73    76    1
    80    73    75    1
