@<TRIPOS>MOLECULE
UNL
 59 62 0 0 0
SMALL
GASTEIGER

@<TRIPOS>ATOM
      1  C         82.4690   28.0640   20.0840 C.ar    1  UNL1        0.0000
      2  C         81.6060   29.1310   19.8320 C.ar    1  UNL1        0.0000
      3  C         81.9360   30.0690   18.8470 C.ar    1  UNL1        0.0000
      4  C         83.0900   29.9520   18.0760 C.ar    1  UNL1        0.0000
      5  N         83.3260   30.8860   17.1530 N.ar    1  UNL1        0.0000
      6  C         84.4060   30.7090   16.3870 C.ar    1  UNL1        0.0000
      7  N         85.2390   29.6760   16.4380 N.ar    1  UNL1        0.0000
      8  C         84.9920   28.7210   17.3450 C.ar    1  UNL1        0.0000
      9  N         85.7460   27.5150   17.3000 N.pl3   1  UNL1        0.0000
     10  C         83.9320   28.8460   18.2730 C.ar    1  UNL1        0.0000
     11  C         83.6310   27.9330   19.3140 C.ar    1  UNL1        0.0000
     12  H         81.3060   30.8690   18.6870 H       1  UNL1        0.0000
     13  H         84.6120   31.4440   15.6910 H       1  UNL1        0.0000
     14  H         85.6610   26.9150   18.0760 H       1  UNL1        0.0000
     15  H         84.2820   27.1560   19.5090 H       1  UNL1        0.0000
     16  C         86.6050   27.0850   16.2620 C.ar    1  UNL1        0.0000
     17  C         87.3310   25.8850   16.3310 C.ar    1  UNL1        0.0000
     18  C         88.1320   25.4590   15.2710 C.ar    1  UNL1        0.0000
     19 CL         88.9250   23.9340   15.3670 Cl      1  UNL1        0.0000
     20  C         88.2720   26.2640   14.1490 C.ar    1  UNL1        0.0000
     21  F         89.0210   25.8710   13.1080 F       1  UNL1        0.0000
     22  C         87.6380   27.5030   14.0920 C.ar    1  UNL1        0.0000
     23  C         86.8170   27.9150   15.1500 C.ar    1  UNL1        0.0000
     24  H         87.2710   25.3060   17.1830 H       1  UNL1        0.0000
     25  H         87.7730   28.1160   13.2720 H       1  UNL1        0.0000
     26  H         86.3630   28.8410   15.1110 H       1  UNL1        0.0000
     27  O         80.9720   25.6980   19.5370 O.2     1  UNL1        0.0000
     28  C         81.3650   25.9640   20.6660 C.2     1  UNL1        0.0000
     29  N         82.1420   27.0500   21.0050 N.am    1  UNL1        0.0000
     30  H         82.4820   27.1190   21.9270 H       1  UNL1        0.0000
     31  C         81.0450   25.1020   21.8320 C.2     1  UNL1        0.0000
     32  C         81.0670   23.7660   21.7010 C.2     1  UNL1        0.0000
     33  H         80.8060   25.5300   22.7400 H       1  UNL1        0.0000
     34  H         81.4650   23.3700   20.8350 H       1  UNL1        0.0000
     35  C         80.5500   22.8150   22.7380 C.3     1  UNL1        0.0000
     36  H         79.7310   22.2690   22.3170 H       1  UNL1        0.0000
     37  H         80.2580   23.4030   23.5820 H       1  UNL1        0.0000
     38  N         81.5530   21.8540   23.2120 N.4     1  UNL1        0.0000
     39  C         81.2480   20.4860   22.7620 C.3     1  UNL1        0.0000
     40  C         82.3090   19.4870   23.2300 C.3     1  UNL1        0.0000
     41  C         83.6990   19.8970   22.7610 C.3     1  UNL1        0.0000
     42  C         83.9920   21.3280   23.1920 C.3     1  UNL1        0.0000
     43  C         82.8840   22.2780   22.7370 C.3     1  UNL1        0.0000
     44  H         81.5410   21.8400   24.2310 H       1  UNL1        0.0000
     45  H         81.2080   20.4740   21.6930 H       1  UNL1        0.0000
     46  H         80.3090   20.1970   23.1850 H       1  UNL1        0.0000
     47  H         82.0780   18.5210   22.8320 H       1  UNL1        0.0000
     48  H         82.3060   19.4660   24.3000 H       1  UNL1        0.0000
     49  H         83.7460   19.8320   21.6950 H       1  UNL1        0.0000
     50  H         84.4250   19.2430   23.1980 H       1  UNL1        0.0000
     51  H         84.9190   21.6400   22.7590 H       1  UNL1        0.0000
     52  H         84.0460   21.3560   24.2600 H       1  UNL1        0.0000
     53  H         83.0910   23.2560   23.1190 H       1  UNL1        0.0000
     54  H         82.8670   22.2720   21.6670 H       1  UNL1        0.0000
     55  O         80.4060   29.3490   20.4630 O.3     1  UNL1        0.0000
     56  C         79.2440   29.0500   19.6900 C.3     1  UNL1        0.0000
     57  H         79.2910   28.0360   19.3520 H       1  UNL1        0.0000
     58  H         79.2000   29.7060   18.8450 H       1  UNL1        0.0000
     59  H         78.3700   29.1860   20.2930 H       1  UNL1        0.0000
@<TRIPOS>BOND
     1     1    11   ar
     2     1     2   ar
     3     1    29    1
     4     2     3   ar
     5     2    55    1
     6     3     4   ar
     7     3    12    1
     8     4     5   ar
     9     4    10   ar
    10     5     6   ar
    11     6    13    1
    12     6     7   ar
    13     7     8   ar
    14     8     9    1
    15     8    10   ar
    16     9    16    1
    17     9    14    1
    18    10    11   ar
    19    11    15    1
    20    16    23   ar
    21    16    17   ar
    22    17    18   ar
    23    17    24    1
    24    18    20   ar
    25    18    19    1
    26    20    21    1
    27    20    22   ar
    28    22    25    1
    29    22    23   ar
    30    23    26    1
    31    27    28    2
    32    28    29   am
    33    28    31    1
    34    29    30    1
    35    31    32    2
    36    31    33    1
    37    32    34    1
    38    32    35    1
    39    35    36    1
    40    35    38    1
    41    35    37    1
    42    38    43    1
    43    38    39    1
    44    38    44    1
    45    39    45    1
    46    39    46    1
    47    39    40    1
    48    40    41    1
    49    40    47    1
    50    40    48    1
    51    41    49    1
    52    41    42    1
    53    41    50    1
    54    42    43    1
    55    42    51    1
    56    42    52    1
    57    43    54    1
    58    43    53    1
    59    55    56    1
    60    56    58    1
    61    56    57    1
    62    56    59    1
