@<TRIPOS>MOLECULE
UNL
 64 68 0 0 0
SMALL
GASTEIGER

@<TRIPOS>ATOM
      1  C         86.0720   27.2510   17.5390 C.3     1  UNL1        0.0000
      2  C         85.3250   28.5920   17.3120 C.3     1  UNL1        0.0000
      3  C         86.1680   29.6130   16.5550 C.3     1  UNL1        0.0000
      4  N         86.5830   29.0350   15.2950 N.pl3   1  UNL1        0.0000
      5  C         87.0970   27.7820   15.2890 C.ar    1  UNL1        0.0000
      6  C         87.8460   27.0790   14.3640 C.ar    1  UNL1        0.0000
      7  C         88.0890   25.8090   14.9900 C.ar    1  UNL1        0.0000
      8  N         87.4990   25.7480   16.2010 N.ar    1  UNL1        0.0000
      9  N         86.8620   26.9220   16.3330 N.ar    1  UNL1        0.0000
     10  H         86.7430   27.3620   18.3640 H       1  UNL1        0.0000
     11  H         85.0630   29.0030   18.2640 H       1  UNL1        0.0000
     12  H         84.4600   28.3840   16.7190 H       1  UNL1        0.0000
     13  H         87.0290   29.8700   17.1350 H       1  UNL1        0.0000
     14  H         85.5910   30.4970   16.3750 H       1  UNL1        0.0000
     15  H         86.4950   29.5440   14.4570 H       1  UNL1        0.0000
     16  C         80.8950   27.2400   17.6530 C.2     1  UNL1        0.0000
     17  N         82.2450   26.9280   17.7920 N.am    1  UNL1        0.0000
     18  C         82.9660   26.5820   16.5730 C.3     1  UNL1        0.0000
     19  C         84.1190   25.6170   16.8370 C.3     1  UNL1        0.0000
     20  C         85.0890   26.0950   17.9420 C.3     1  UNL1        0.0000
     21  C         84.2270   26.4140   19.1860 C.3     1  UNL1        0.0000
     22  C         83.0830   27.3850   18.9010 C.3     1  UNL1        0.0000
     23  O         80.3080   27.1930   16.5660 O.2     1  UNL1        0.0000
     24  H         83.3600   27.4780   16.1390 H       1  UNL1        0.0000
     25  H         82.2790   26.0980   15.9110 H       1  UNL1        0.0000
     26  H         84.6740   25.4970   15.9310 H       1  UNL1        0.0000
     27  H         83.6870   24.7000   17.1770 H       1  UNL1        0.0000
     28  H         85.7820   25.3060   18.1510 H       1  UNL1        0.0000
     29  H         84.8590   26.8460   19.9340 H       1  UNL1        0.0000
     30  H         83.7870   25.4940   19.5090 H       1  UNL1        0.0000
     31  H         82.4780   27.4740   19.7790 H       1  UNL1        0.0000
     32  H         83.5080   28.3280   18.6290 H       1  UNL1        0.0000
     33  C         78.8520   27.2620   19.0200 C.2     1  UNL1        0.0000
     34  C         80.1400   27.6140   18.8800 C.2     1  UNL1        0.0000
     35  H         78.3350   27.5260   19.8740 H       1  UNL1        0.0000
     36  H         78.3780   26.7290   18.2740 H       1  UNL1        0.0000
     37  H         80.6100   28.1470   19.6280 H       1  UNL1        0.0000
     38  C         88.9050   24.6850   14.5110 C.ar    1  UNL1        0.0000
     39  C         89.3330   24.6290   13.1780 C.ar    1  UNL1        0.0000
     40  C         90.0730   23.5440   12.7030 C.ar    1  UNL1        0.0000
     41  C         90.4890   22.5410   13.5760 C.ar    1  UNL1        0.0000
     42  C         90.0770   22.5850   14.9100 C.ar    1  UNL1        0.0000
     43  C         89.2890   23.6480   15.3740 C.ar    1  UNL1        0.0000
     44  H         89.0960   25.4020   12.5370 H       1  UNL1        0.0000
     45  H         90.3130   23.4860   11.7010 H       1  UNL1        0.0000
     46  H         90.3530   21.8300   15.5570 H       1  UNL1        0.0000
     47  H         88.9880   23.6670   16.3610 H       1  UNL1        0.0000
     48  O         91.2540   21.4580   13.2040 O.3     1  UNL1        0.0000
     49  C         92.0310   20.8110   14.1410 C.ar    1  UNL1        0.0000
     50  C         92.9930   21.4430   14.9350 C.ar    1  UNL1        0.0000
     51  C         93.7560   20.7010   15.8390 C.ar    1  UNL1        0.0000
     52  C         93.5150   19.3380   15.9990 C.ar    1  UNL1        0.0000
     53  C         92.5100   18.7170   15.2580 C.ar    1  UNL1        0.0000
     54  C         91.7710   19.4510   14.3290 C.ar    1  UNL1        0.0000
     55  H         93.1420   22.4610   14.8500 H       1  UNL1        0.0000
     56  H         94.4970   21.1630   16.3880 H       1  UNL1        0.0000
     57  H         94.0790   18.7890   16.6670 H       1  UNL1        0.0000
     58  H         92.3130   17.7130   15.3960 H       1  UNL1        0.0000
     59  H         91.0300   18.9890   13.7790 H       1  UNL1        0.0000
     60  C         88.2810   27.5570   13.0660 C.2     1  UNL1        0.0000
     61  N         87.3140   28.1610   12.3090 N.am    1  UNL1        0.0000
     62  O         89.4330   27.4970   12.6490 O.2     1  UNL1        0.0000
     63  H         86.3880   28.2110   12.6410 H       1  UNL1        0.0000
     64  H         87.5440   28.5480   11.4330 H       1  UNL1        0.0000
@<TRIPOS>BOND
     1     1     9    1
     2     1     2    1
     3     1    20    1
     4     1    10    1
     5     2     3    1
     6     2    12    1
     7     2    11    1
     8     3     4    1
     9     3    14    1
    10     3    13    1
    11     4    15    1
    12     4     5    1
    13     5     6   ar
    14     5     9   ar
    15     6    60    1
    16     6     7   ar
    17     7    38    1
    18     7     8   ar
    19     8     9   ar
    20    16    23    2
    21    16    17   am
    22    16    34    1
    23    17    18    1
    24    17    22    1
    25    18    25    1
    26    18    24    1
    27    18    19    1
    28    19    26    1
    29    19    27    1
    30    19    20    1
    31    20    28    1
    32    20    21    1
    33    21    22    1
    34    21    30    1
    35    21    29    1
    36    22    32    1
    37    22    31    1
    38    33    36    1
    39    33    34    2
    40    33    35    1
    41    34    37    1
    42    38    39   ar
    43    38    43   ar
    44    39    44    1
    45    39    40   ar
    46    40    45    1
    47    40    41   ar
    48    41    48    1
    49    41    42   ar
    50    42    43   ar
    51    42    46    1
    52    43    47    1
    53    48    49    1
    54    49    54   ar
    55    49    50   ar
    56    50    55    1
    57    50    51   ar
    58    51    52   ar
    59    51    56    1
    60    52    53   ar
    61    52    57    1
    62    53    54   ar
    63    53    58    1
    64    54    59    1
    65    60    61   am
    66    60    62    2
    67    61    64    1
    68    61    63    1
