@<TRIPOS>MOLECULE
UNL
 70 73 0 0 0
SMALL
GASTEIGER

@<TRIPOS>ATOM
      1  C         88.9180   24.7280   15.7950 C.ar    1  UNL1        0.0000
      2  C         88.5640   24.7710   14.4280 C.ar    1  UNL1        0.0000
      3  C         89.0170   23.7180   13.5570 C.ar    1  UNL1        0.0000
      4  C         88.7100   23.5650   12.1680 C.ar    1  UNL1        0.0000
      5  C         89.2000   22.4970   11.3830 C.ar    1  UNL1        0.0000
      6  C         89.9630   21.5050   11.9990 C.ar    1  UNL1        0.0000
      7  C         90.2520   21.6480   13.3650 C.ar    1  UNL1        0.0000
      8  C         89.7960   22.7010   14.1430 C.ar    1  UNL1        0.0000
      9  N         90.1100   22.6690   15.4470 N.ar    1  UNL1        0.0000
     10  C         89.6680   23.6620   16.2450 C.ar    1  UNL1        0.0000
     11  H         88.1020   24.2680   11.7190 H       1  UNL1        0.0000
     12  H         90.8360   20.9260   13.8160 H       1  UNL1        0.0000
     13  H         89.9040   23.6230   17.2490 H       1  UNL1        0.0000
     14  N         88.6660   22.3950   10.0900 N.am    1  UNL1        0.0000
     15  C         87.5760   21.7230    9.6210 C.2     1  UNL1        0.0000
     16  O         87.1390   22.0520    8.5160 O.2     1  UNL1        0.0000
     17  H         89.1640   22.8950    9.4040 H       1  UNL1        0.0000
     18  C         86.9480   20.6290   10.4050 C.2     1  UNL1        0.0000
     19  C         85.8130   20.0890    9.9150 C.2     1  UNL1        0.0000
     20  H         87.3630   20.2940   11.2890 H       1  UNL1        0.0000
     21  H         85.4980   20.4480    9.0000 H       1  UNL1        0.0000
     22  C         84.9540   19.0310   10.5400 C.3     1  UNL1        0.0000
     23  H         85.1900   18.9550   11.5800 H       1  UNL1        0.0000
     24  H         85.1420   18.1000   10.0480 H       1  UNL1        0.0000
     25  N         83.5320   19.3660   10.3910 N.4     1  UNL1        0.0000
     26  H         83.0150   18.4880   10.3610 H       1  UNL1        0.0000
     27  C         83.0540   20.1430   11.5360 C.3     1  UNL1        0.0000
     28  H         83.8480   20.2590   12.2450 H       1  UNL1        0.0000
     29  H         82.2360   19.6320   11.9980 H       1  UNL1        0.0000
     30  H         82.7300   21.1070   11.2030 H       1  UNL1        0.0000
     31  C         83.2700   20.0720    9.1380 C.3     1  UNL1        0.0000
     32  H         82.3630   19.7030    8.7050 H       1  UNL1        0.0000
     33  H         84.0810   19.9090    8.4610 H       1  UNL1        0.0000
     34  H         83.1720   21.1190    9.3320 H       1  UNL1        0.0000
     35  N         88.1820   26.5280   17.5110 N.1     1  UNL1        0.0000
     36  C         88.5200   25.7300   16.7310 C.1     1  UNL1        0.0000
     37  N         87.7800   25.8750   13.9690 N.pl3   1  UNL1        0.0000
     38  H         88.0520   26.2440   13.0980 H       1  UNL1        0.0000
     39  C         86.6730   26.5170   14.5730 C.ar    1  UNL1        0.0000
     40  C         86.7290   27.9120   14.7500 C.ar    1  UNL1        0.0000
     41  C         85.7350   28.6100   15.4510 C.ar    1  UNL1        0.0000
     42 CL         85.8710   30.3350   15.4490 Cl      1  UNL1        0.0000
     43  C         84.6840   27.9120   16.0510 C.ar    1  UNL1        0.0000
     44  C         84.5940   26.5330   15.8280 C.ar    1  UNL1        0.0000
     45  C         85.5660   25.8460   15.0870 C.ar    1  UNL1        0.0000
     46  H         87.5250   28.4350   14.3530 H       1  UNL1        0.0000
     47  H         83.7930   26.0100   16.2170 H       1  UNL1        0.0000
     48  H         85.4610   24.8340   14.9210 H       1  UNL1        0.0000
     49  O         83.6600   28.4160   16.8080 O.3     1  UNL1        0.0000
     50  C         83.8480   28.4060   18.2300 C.3     1  UNL1        0.0000
     51  H         84.8930   28.4800   18.4470 H       1  UNL1        0.0000
     52  H         83.4520   27.4940   18.6240 H       1  UNL1        0.0000
     53  C         83.1230   29.5690   18.8740 C.ar    1  UNL1        0.0000
     54  N         82.8200   29.4540   20.1940 N.ar    1  UNL1        0.0000
     55  C         82.1930   30.4940   20.7850 C.ar    1  UNL1        0.0000
     56  C         81.8530   31.6620   20.1260 C.ar    1  UNL1        0.0000
     57  C         82.1790   31.7740   18.7800 C.ar    1  UNL1        0.0000
     58  C         82.8250   30.7180   18.1420 C.ar    1  UNL1        0.0000
     59  H         81.9530   30.4120   21.7850 H       1  UNL1        0.0000
     60  H         81.3700   32.4290   20.6200 H       1  UNL1        0.0000
     61  H         81.9460   32.6330   18.2570 H       1  UNL1        0.0000
     62  H         83.0800   30.7840   17.1440 H       1  UNL1        0.0000
     63  O         90.5150   20.3670   11.4850 O.3     1  UNL1        0.0000
     64  C         90.4980   19.1480   12.2190 C.3     1  UNL1        0.0000
     65  H         89.9660   18.4010   11.6690 H       1  UNL1        0.0000
     66  H         90.0130   19.2850   13.1610 H       1  UNL1        0.0000
     67  C         91.9440   18.7090   12.4230 C.3     1  UNL1        0.0000
     68  H         92.0120   18.1060   13.3050 H       1  UNL1        0.0000
     69  H         92.5660   19.5730   12.5340 H       1  UNL1        0.0000
     70  H         92.2680   18.1420   11.5770 H       1  UNL1        0.0000
@<TRIPOS>BOND
     1     1     2   ar
     2     1    10   ar
     3     1    36    1
     4     2     3   ar
     5     2    37    1
     6     3     4   ar
     7     3     8   ar
     8     4     5   ar
     9     4    11    1
    10     5    14    1
    11     5     6   ar
    12     6    63    1
    13     6     7   ar
    14     7    12    1
    15     7     8   ar
    16     8     9   ar
    17     9    10   ar
    18    10    13    1
    19    14    17    1
    20    14    15   am
    21    15    16    2
    22    15    18    1
    23    18    19    2
    24    18    20    1
    25    19    21    1
    26    19    22    1
    27    22    24    1
    28    22    25    1
    29    22    23    1
    30    25    31    1
    31    25    26    1
    32    25    27    1
    33    27    30    1
    34    27    29    1
    35    27    28    1
    36    31    33    1
    37    31    32    1
    38    31    34    1
    39    35    36    3
    40    37    38    1
    41    37    39    1
    42    39    40   ar
    43    39    45   ar
    44    40    46    1
    45    40    41   ar
    46    41    42    1
    47    41    43   ar
    48    43    44   ar
    49    43    49    1
    50    44    45   ar
    51    44    47    1
    52    45    48    1
    53    49    50    1
    54    50    51    1
    55    50    52    1
    56    50    53    1
    57    53    58   ar
    58    53    54   ar
    59    54    55   ar
    60    55    56   ar
    61    55    59    1
    62    56    57   ar
    63    56    60    1
    64    57    58   ar
    65    57    61    1
    66    58    62    1
    67    63    64    1
    68    64    65    1
    69    64    67    1
    70    64    66    1
    71    67    70    1
    72    67    69    1
    73    67    68    1
