@<TRIPOS>MOLECULE
UNL
 69 71 0 0 0
SMALL
GASTEIGER

@<TRIPOS>ATOM
      1  C         88.8480   24.2010   14.0630 C.3     1  UNL1        0.0000
      2  H         87.9260   23.9870   13.5620 H       1  UNL1        0.0000
      3  C         89.6960   22.9230   14.2760 C.2     1  UNL1        0.0000
      4  O         90.3470   22.7400   15.3010 O.2     1  UNL1        0.0000
      5  N         89.6620   22.0070   13.2470 N.am    1  UNL1        0.0000
      6  H         89.1000   22.2110   12.4640 H       1  UNL1        0.0000
      7  C         90.4160   20.7420   13.2490 C.3     1  UNL1        0.0000
      8  H         90.2590   20.2830   14.2020 H       1  UNL1        0.0000
      9  C         89.9100   19.6960   12.2290 C.3     1  UNL1        0.0000
     10  H         89.6770   18.7990   12.7640 H       1  UNL1        0.0000
     11  H         90.6970   19.5760   11.5140 H       1  UNL1        0.0000
     12  C         88.6850   20.1010   11.4380 C.ar    1  UNL1        0.0000
     13  C         88.7900   21.0320   10.3960 C.ar    1  UNL1        0.0000
     14  C         87.6520   21.4660    9.7140 C.ar    1  UNL1        0.0000
     15  C         86.3990   20.9590   10.0530 C.ar    1  UNL1        0.0000
     16  C         86.2870   19.9960   11.0510 C.ar    1  UNL1        0.0000
     17  C         87.4260   19.5590   11.7240 C.ar    1  UNL1        0.0000
     18  H         89.7170   21.4010   10.1290 H       1  UNL1        0.0000
     19  H         87.7380   22.1640    8.9600 H       1  UNL1        0.0000
     20  H         85.5550   21.2960    9.5630 H       1  UNL1        0.0000
     21  H         85.3630   19.6070   11.2920 H       1  UNL1        0.0000
     22  H         87.3410   18.8250   12.4440 H       1  UNL1        0.0000
     23  C         91.9160   21.0520   13.0430 C.2     1  UNL1        0.0000
     24  O         92.3050   21.8480   12.1890 O.2     1  UNL1        0.0000
     25  C         92.8970   20.3500   13.9530 C.3     1  UNL1        0.0000
     26  C         93.3920   21.0940   15.1840 C.3     1  UNL1        0.0000
     27  O         92.3830   20.0900   15.2810 O.3     1  UNL1        0.0000
     28  H         93.1410   22.1240   15.3280 H       1  UNL1        0.0000
     29  H         94.3440   21.2670   15.6410 H       1  UNL1        0.0000
     30  C         93.6930   19.1770   13.4560 C.3     1  UNL1        0.0000
     31  H         93.7320   18.4240   14.2150 H       1  UNL1        0.0000
     32  H         94.6870   19.4950   13.2180 H       1  UNL1        0.0000
     33  H         93.2280   18.7760   12.5790 H       1  UNL1        0.0000
     34  C         87.6340   25.8290   15.5220 C.2     1  UNL1        0.0000
     35  O         87.1390   26.4220   14.5630 O.2     1  UNL1        0.0000
     36  N         88.5050   24.7750   15.3700 N.am    1  UNL1        0.0000
     37  H         88.9190   24.3880   16.1760 H       1  UNL1        0.0000
     38  C         87.3140   26.2330   16.9810 C.3     1  UNL1        0.0000
     39  H         87.7900   27.1530   17.2460 H       1  UNL1        0.0000
     40  C         85.2180   27.5930   17.1870 C.2     1  UNL1        0.0000
     41  O         85.8470   28.6480   17.1970 O.2     1  UNL1        0.0000
     42  N         85.8600   26.3830   17.0830 N.am    1  UNL1        0.0000
     43  H         85.3100   25.5670   17.0770 H       1  UNL1        0.0000
     44  C         81.4160   27.7740   17.8510 C.ar    1  UNL1        0.0000
     45  N         81.5410   27.0420   16.7630 N.ar    1  UNL1        0.0000
     46  C         82.8810   26.9080   16.4470 C.ar    1  UNL1        0.0000
     47  C         83.7720   27.5370   17.2940 C.ar    1  UNL1        0.0000
     48  S         82.8900   28.3130   18.5490 S.2     1  UNL1        0.0000
     49  H         83.1960   26.3690   15.6250 H       1  UNL1        0.0000
     50  C         80.1170   28.1500   18.4730 C.3     1  UNL1        0.0000
     51  H         79.5540   27.2650   18.6850 H       1  UNL1        0.0000
     52  H         79.5650   28.7710   17.8000 H       1  UNL1        0.0000
     53  H         80.2990   28.6830   19.3830 H       1  UNL1        0.0000
     54  C         87.8340   25.1520   17.9380 C.3     1  UNL1        0.0000
     55  H         87.6610   24.1880   17.5110 H       1  UNL1        0.0000
     56  H         87.3180   25.2350   18.8720 H       1  UNL1        0.0000
     57  O         89.2390   25.3280   18.1610 O.3     1  UNL1        0.0000
     58  C         89.4910   26.0440   19.3660 C.3     1  UNL1        0.0000
     59  H         88.6640   25.9200   20.0340 H       1  UNL1        0.0000
     60  H         89.6200   27.0820   19.1440 H       1  UNL1        0.0000
     61  H         90.3800   25.6650   19.8260 H       1  UNL1        0.0000
     62  C         89.6600   25.1630   13.1930 C.3     1  UNL1        0.0000
     63  H         90.4810   25.5480   13.7620 H       1  UNL1        0.0000
     64  H         89.0300   25.9670   12.8760 H       1  UNL1        0.0000
     65  O         90.1630   24.4790   12.0390 O.3     1  UNL1        0.0000
     66  C         91.3170   25.1310   11.5230 C.3     1  UNL1        0.0000
     67  H         91.2700   26.1750   11.7550 H       1  UNL1        0.0000
     68  H         91.3530   25.0040   10.4610 H       1  UNL1        0.0000
     69  H         92.1940   24.7060   11.9630 H       1  UNL1        0.0000
@<TRIPOS>BOND
     1     1    62    1
     2     1     2    1
     3     1     3    1
     4     1    36    1
     5     3     5   am
     6     3     4    2
     7     5     6    1
     8     5     7    1
     9     7     9    1
    10     7    23    1
    11     7     8    1
    12     9    12    1
    13     9    11    1
    14     9    10    1
    15    12    13   ar
    16    12    17   ar
    17    13    14   ar
    18    13    18    1
    19    14    19    1
    20    14    15   ar
    21    15    20    1
    22    15    16   ar
    23    16    21    1
    24    16    17   ar
    25    17    22    1
    26    23    24    2
    27    23    25    1
    28    25    30    1
    29    25    26    1
    30    25    27    1
    31    26    27    1
    32    26    28    1
    33    26    29    1
    34    30    33    1
    35    30    32    1
    36    30    31    1
    37    34    35    2
    38    34    36   am
    39    34    38    1
    40    36    37    1
    41    38    42    1
    42    38    39    1
    43    38    54    1
    44    40    42   am
    45    40    41    2
    46    40    47    1
    47    42    43    1
    48    44    45   ar
    49    44    50    1
    50    44    48   ar
    51    45    46   ar
    52    46    49    1
    53    46    47   ar
    54    47    48   ar
    55    50    52    1
    56    50    51    1
    57    50    53    1
    58    54    55    1
    59    54    57    1
    60    54    56    1
    61    57    58    1
    62    58    60    1
    63    58    61    1
    64    58    59    1
    65    62    65    1
    66    62    64    1
    67    62    63    1
    68    65    66    1
    69    66    68    1
    70    66    67    1
    71    66    69    1
