@<TRIPOS>MOLECULE
UNL
 62 65 0 0 0
SMALL
GASTEIGER

@<TRIPOS>ATOM
      1  N         86.5500   26.8370   14.7660 N.pl3   1  UNL1       -0.3190
      2  C         87.5120   26.0640   15.4800 C.3     1  UNL1        0.1424
      3  N         87.6360   26.3150   16.8010 N.2     1  UNL1       -0.2493
      4  C         88.4670   25.5550   17.5050 C.2     1  UNL1        0.0825
      5  N         89.1650   24.5350   17.0180 N.pl3   1  UNL1       -0.3053
      6  C         89.0420   24.2930   15.7160 C.ar    1  UNL1        0.0424
      7  C         88.2550   25.0500   14.8290 C.ar    1  UNL1        0.0176
      8  C         88.2820   24.7160   13.4290 C.ar    1  UNL1       -0.0284
      9  C         89.0050   23.6040   12.9820 C.ar    1  UNL1        0.0763
     10  C         89.6780   22.8040   13.9290 C.ar    1  UNL1        0.1439
     11  C         89.7180   23.1830   15.2590 C.ar    1  UNL1        0.0035
     12  H         86.3500   26.5930   13.8340 H       1  UNL1        0.1484
     13  H         88.5800   25.7730   18.5070 H       1  UNL1        0.0997
     14  H         87.7660   25.3000   12.7510 H       1  UNL1        0.0642
     15  H         90.2680   22.6210   15.9260 H       1  UNL1        0.0673
     16 CL         82.7170   28.5810   17.7440 Cl      1  UNL1       -0.0805
     17  C         84.0870   28.8480   16.7320 C.ar    1  UNL1        0.0778
     18  C         84.5510   30.1410   16.5050 C.ar    1  UNL1        0.1417
     19  F         83.9470   31.2000   17.0640 F       1  UNL1       -0.2040
     20  C         85.6520   30.3560   15.6890 C.ar    1  UNL1       -0.0233
     21  C         86.2940   29.2640   15.1010 C.ar    1  UNL1       -0.0380
     22  C         85.8640   27.9450   15.3410 C.ar    1  UNL1        0.0304
     23  C         84.7330   27.7510   16.1470 C.ar    1  UNL1       -0.0197
     24  H         85.9930   31.3150   15.5170 H       1  UNL1        0.0647
     25  H         87.1000   29.4260   14.4790 H       1  UNL1        0.0637
     26  H         84.3770   26.7960   16.3110 H       1  UNL1        0.0651
     27  N         89.0810   23.1380   11.6600 N.am    1  UNL1       -0.2790
     28  C         88.5270   22.1400   10.9230 C.2     1  UNL1        0.2408
     29  O         88.8590   22.0670    9.7380 O.2     1  UNL1       -0.2705
     30  H         89.7020   23.6800   11.1230 H       1  UNL1        0.1552
     31  C         87.4680   21.2580   11.4630 C.2     1  UNL1       -0.0052
     32  C         87.0510   20.2330   10.6930 C.2     1  UNL1       -0.0958
     33  H         87.0640   21.4210   12.3980 H       1  UNL1        0.0666
     34  H         87.4780   20.1790    9.7550 H       1  UNL1        0.0555
     35  C         86.0510   19.1600   11.0110 C.3     1  UNL1       -0.0718
     36  H         85.8890   19.1580   12.0690 H       1  UNL1        0.0101
     37  H         86.4650   18.2420   10.6490 H       1  UNL1        0.0101
     38  N         84.7530   19.3210   10.3490 N.4     1  UNL1        0.3783
     39  H         84.2790   18.4180   10.3590 H       1  UNL1       -0.0822
     40  C         83.9220   20.2960   11.0630 C.3     1  UNL1       -0.1032
     41  H         83.0730   20.5470   10.4630 H       1  UNL1        0.0023
     42  H         84.4950   21.1790   11.2550 H       1  UNL1        0.0023
     43  H         83.5930   19.8740   11.9890 H       1  UNL1        0.0023
     44  C         84.9380   19.7520    8.9620 C.3     1  UNL1       -0.1032
     45  H         85.3660   18.9530    8.3950 H       1  UNL1        0.0023
     46  H         85.5930   20.5990    8.9360 H       1  UNL1        0.0023
     47  H         83.9920   20.0200    8.5420 H       1  UNL1        0.0023
     48  O         90.2620   21.6570   13.4410 O.3     1  UNL1       -0.4845
     49  C         91.6260   21.3990   13.7840 C.3     1  UNL1        0.1255
     50  C         92.5820   21.8160   12.6790 C.3     1  UNL1        0.0846
     51  O         93.6350   20.8540   12.6320 O.3     1  UNL1       -0.3760
     52  C         93.1740   19.6440   13.2350 C.3     1  UNL1        0.0512
     53  C         91.8370   19.9030   13.8930 C.3     1  UNL1        0.0099
     54  H         91.8130   21.9370   14.6890 H       1  UNL1        0.0757
     55  H         92.9840   22.7850   12.8930 H       1  UNL1        0.0597
     56  H         92.0730   21.8630   11.7400 H       1  UNL1        0.0597
     57  H         93.8800   19.3180   13.9700 H       1  UNL1        0.0561
     58  H         93.0700   18.8830   12.4900 H       1  UNL1        0.0561
     59  H         91.0590   19.3760   13.3820 H       1  UNL1        0.0324
     60  H         91.8200   19.5710   14.9090 H       1  UNL1        0.0324
     61 H          88.5171   25.8603   15.1749 H       1  UNL1        0.0805
     62 H          89.7450   23.9851   17.5928 H       1  UNL1        0.1530
@<TRIPOS>BOND
     1     1    12    1
     2     1    22    1
     3     1     2    1
     4     2     7    1
     5     2     3    1
     6     2    61    1
     7     3     4    2
     8     4     5    1
     9     4    13    1
    10     5     6    1
    11     5    62    1
    12     6     7   ar
    13     6    11   ar
    14     7     8   ar
    15     8    14    1
    16     8     9   ar
    17     9    27    1
    18     9    10   ar
    19    10    48    1
    20    10    11   ar
    21    11    15    1
    22    16    17    1
    23    17    23   ar
    24    17    18   ar
    25    18    20   ar
    26    18    19    1
    27    20    21   ar
    28    20    24    1
    29    21    25    1
    30    21    22   ar
    31    22    23   ar
    32    23    26    1
    33    27    28   am
    34    27    30    1
    35    28    29    2
    36    28    31    1
    37    31    32    2
    38    31    33    1
    39    32    34    1
    40    32    35    1
    41    35    38    1
    42    35    37    1
    43    35    36    1
    44    38    44    1
    45    38    39    1
    46    38    40    1
    47    40    41    1
    48    40    42    1
    49    40    43    1
    50    44    45    1
    51    44    47    1
    52    44    46    1
    53    48    49    1
    54    49    50    1
    55    49    53    1
    56    49    54    1
    57    50    56    1
    58    50    51    1
    59    50    55    1
    60    51    52    1
    61    52    58    1
    62    52    53    1
    63    52    57    1
    64    53    59    1
    65    53    60    1
