@<TRIPOS>MOLECULE
UNL
 71 75 0 0 0
SMALL
GASTEIGER

@<TRIPOS>ATOM
      1  C         83.9660   27.5260   18.9860 C.ar    1  UNL1        0.0000
      2  N         83.1110   28.5220   19.3840 N.ar    1  UNL1        0.0000
      3  C         81.9290   28.1770   19.9870 C.ar    1  UNL1        0.0000
      4  N         80.9540   29.1490   20.2840 N.ar    1  UNL1        0.0000
      5  C         79.6730   28.7920   20.7040 C.ar    1  UNL1        0.0000
      6  N         79.4210   27.4760   21.0300 N.ar    1  UNL1        0.0000
      7  C         80.3110   26.5480   20.8750 C.ar    1  UNL1        0.0000
      8  N         80.0170   25.2350   21.2090 N.pl3   1  UNL1        0.0000
      9  C         80.6740   24.4790   22.3060 C.3     1  UNL1        0.0000
     10  C         81.1200   23.0680   21.8250 C.3     1  UNL1        0.0000
     11  N         80.0980   22.3850   21.0090 N.am    1  UNL1        0.0000
     12  C         79.7800   21.0750   21.3170 C.2     1  UNL1        0.0000
     13  O         80.3050   20.4740   22.2510 O.2     1  UNL1        0.0000
     14  C         79.5370   23.2150   19.9310 C.3     1  UNL1        0.0000
     15  C         78.9530   24.5200   20.4960 C.3     1  UNL1        0.0000
     16  O         78.7720   29.6260   20.7920 O.2     1  UNL1        0.0000
     17  C         81.6120   26.8540   20.2500 C.ar    1  UNL1        0.0000
     18  C         82.4640   25.8490   19.8150 C.ar    1  UNL1        0.0000
     19  C         83.6350   26.1830   19.1690 C.ar    1  UNL1        0.0000
     20  F         84.3700   25.1860   18.6630 F       1  UNL1        0.0000
     21  H         81.5400   25.0340   22.6010 H       1  UNL1        0.0000
     22  H         81.3280   22.4660   22.6840 H       1  UNL1        0.0000
     23  H         81.9850   23.1990   21.2080 H       1  UNL1        0.0000
     24  H         78.7620   22.6700   19.4350 H       1  UNL1        0.0000
     25  H         80.3190   23.4590   19.2420 H       1  UNL1        0.0000
     26  H         78.5840   25.1260   19.6960 H       1  UNL1        0.0000
     27  H         78.1460   24.3020   21.1640 H       1  UNL1        0.0000
     28  H         82.2230   24.8570   19.9740 H       1  UNL1        0.0000
     29  C         85.1080   28.4710   16.9410 C.ar    1  UNL1        0.0000
     30  C         85.1720   27.9360   18.2400 C.ar    1  UNL1        0.0000
     31  C         86.4640   27.7390   18.7610 C.ar    1  UNL1        0.0000
     32  F         86.6310   27.3270   20.0290 F       1  UNL1        0.0000
     33  C         87.6190   27.9680   18.0140 C.ar    1  UNL1        0.0000
     34  C         87.5150   28.4440   16.7120 C.ar    1  UNL1        0.0000
     35  C         86.2560   28.7110   16.1830 C.ar    1  UNL1        0.0000
     36  H         88.5480   27.7840   18.4240 H       1  UNL1        0.0000
     37  H         88.3630   28.5970   16.1450 H       1  UNL1        0.0000
     38  H         86.1710   29.0890   15.2260 H       1  UNL1        0.0000
     39  O         83.9170   28.7750   16.3330 O.3     1  UNL1        0.0000
     40  H         83.8900   28.9390   15.4110 H       1  UNL1        0.0000
     41  C         81.2920   30.5170   20.0810 C.ar    1  UNL1        0.0000
     42  C         81.4060   31.4010   21.1750 C.ar    1  UNL1        0.0000
     43  N         81.8120   32.6920   21.0230 N.ar    1  UNL1        0.0000
     44  C         82.0620   33.1340   19.7750 C.ar    1  UNL1        0.0000
     45  C         81.9260   32.3510   18.6440 C.ar    1  UNL1        0.0000
     46  C         81.5230   31.0200   18.7840 C.ar    1  UNL1        0.0000
     47  H         82.3750   34.1100   19.6580 H       1  UNL1        0.0000
     48  H         82.1180   32.7440   17.7090 H       1  UNL1        0.0000
     49  C         81.3250   30.1900   17.5460 C.3     1  UNL1        0.0000
     50  H         81.5860   29.1730   17.7530 H       1  UNL1        0.0000
     51  H         81.9490   30.5650   16.7610 H       1  UNL1        0.0000
     52  H         80.3000   30.2400   17.2430 H       1  UNL1        0.0000
     53  C         81.1490   30.9710   22.6120 C.3     1  UNL1        0.0000
     54  H         80.3250   30.2890   22.5970 H       1  UNL1        0.0000
     55  C         82.3870   30.2760   23.1800 C.3     1  UNL1        0.0000
     56  H         82.6740   29.4730   22.5330 H       1  UNL1        0.0000
     57  H         82.1630   29.8880   24.1530 H       1  UNL1        0.0000
     58  H         83.1900   30.9790   23.2540 H       1  UNL1        0.0000
     59  C         80.7580   32.1520   23.5120 C.3     1  UNL1        0.0000
     60  H         79.8570   32.5970   23.1450 H       1  UNL1        0.0000
     61  H         81.5430   32.8790   23.5080 H       1  UNL1        0.0000
     62  H         80.6020   31.8020   24.5110 H       1  UNL1        0.0000
     63  C         78.7570   20.3860   20.4790 C.2     1  UNL1        0.0000
     64  C         78.9130   19.1100   20.1110 C.2     1  UNL1        0.0000
     65  H         77.9160   20.9020   20.1780 H       1  UNL1        0.0000
     66  H         79.7520   18.5860   20.4080 H       1  UNL1        0.0000
     67  H         78.1950   18.6490   19.5310 H       1  UNL1        0.0000
     68  C         79.7400   24.3400   23.5120 C.3     1  UNL1        0.0000
     69  H         79.2620   25.2780   23.7020 H       1  UNL1        0.0000
     70  H         80.3070   24.0470   24.3700 H       1  UNL1        0.0000
     71  H         78.9980   23.5970   23.3040 H       1  UNL1        0.0000
@<TRIPOS>BOND
     1     1    30    1
     2     1    19   ar
     3     1     2   ar
     4     2     3   ar
     5     3    17   ar
     6     3     4   ar
     7     4    41    1
     8     4     5   ar
     9     5    16    2
    10     5     6   ar
    11     6     7   ar
    12     7    17   ar
    13     7     8    1
    14     8    15    1
    15     8     9    1
    16     9    10    1
    17     9    21    1
    18     9    68    1
    19    10    11    1
    20    10    23    1
    21    10    22    1
    22    11    14    1
    23    11    12   am
    24    12    63    1
    25    12    13    2
    26    14    25    1
    27    14    24    1
    28    14    15    1
    29    15    26    1
    30    15    27    1
    31    17    18   ar
    32    18    19   ar
    33    18    28    1
    34    19    20    1
    35    29    35   ar
    36    29    39    1
    37    29    30   ar
    38    30    31   ar
    39    31    33   ar
    40    31    32    1
    41    33    34   ar
    42    33    36    1
    43    34    37    1
    44    34    35   ar
    45    35    38    1
    46    39    40    1
    47    41    46   ar
    48    41    42   ar
    49    42    43   ar
    50    42    53    1
    51    43    44   ar
    52    44    45   ar
    53    44    47    1
    54    45    48    1
    55    45    46   ar
    56    46    49    1
    57    49    51    1
    58    49    52    1
    59    49    50    1
    60    53    54    1
    61    53    55    1
    62    53    59    1
    63    55    56    1
    64    55    58    1
    65    55    57    1
    66    59    60    1
    67    59    61    1
    68    59    62    1
    69    63    64    2
    70    63    65    1
    71    64    67    1
    72    64    66    1
    73    68    71    1
    74    68    69    1
    75    68    70    1
