@<TRIPOS>MOLECULE
UNL
 59 63 0 0 0
SMALL
GASTEIGER

@<TRIPOS>ATOM
      1  N         89.2510   23.5630   14.2110 N.ar    1  UNL1       -0.2449
      2  C         90.2850   22.6760   14.2680 C.ar    1  UNL1        0.1293
      3  C         90.0760   21.7710   13.2390 C.ar    1  UNL1        0.0582
      4  C         91.0670   20.7940   13.0710 C.3     1  UNL1        0.1306
      5  N         91.0990   19.8500   12.0520 N.3     1  UNL1       -0.3056
      6  N         92.1060   20.7610   13.9330 N.2     1  UNL1       -0.2529
      7  C         92.1640   21.6840   14.9100 C.2     1  UNL1        0.0832
      8  N         91.3040   22.6880   15.1420 N.pl3   1  UNL1       -0.2906
      9  C         88.8340   22.1720   12.6510 C.ar    1  UNL1        0.1011
     10  N         88.3580   23.2880   13.2390 N.ar    1  UNL1       -0.1688
     11  H         90.3730   19.8180   11.3880 H       1  UNL1        0.1205
     12  H         91.8480   19.2130   11.9940 H       1  UNL1        0.1205
     13  H         92.9650   21.6110   15.5560 H       1  UNL1        0.0997
     14  O         87.2880   28.1650   13.8130 O.2     1  UNL1       -0.2706
     15  C         87.3160   27.9250   15.0180 C.2     1  UNL1        0.2389
     16  N         87.6130   26.6790   15.5450 N.am    1  UNL1       -0.2960
     17  C         87.3910   26.2730   16.9340 C.3     1  UNL1        0.0151
     18  C         88.5840   25.4770   17.4510 C.3     1  UNL1       -0.0352
     19  C         88.8840   24.2780   16.5520 C.3     1  UNL1       -0.0275
     20  C         87.8680   25.5700   14.6160 C.3     1  UNL1        0.0374
     21  C         89.0480   24.7110   15.0850 C.3     1  UNL1        0.0704
     22  H         86.5110   25.6650   16.9880 H       1  UNL1        0.0465
     23  H         87.2690   27.1490   17.5370 H       1  UNL1        0.0465
     24  H         88.3680   25.1260   18.4390 H       1  UNL1        0.0281
     25  H         89.4410   26.1180   17.4570 H       1  UNL1        0.0281
     26  H         88.0770   23.5790   16.6210 H       1  UNL1        0.0287
     27  H         89.8000   23.8320   16.8780 H       1  UNL1        0.0287
     28  H         88.0920   25.9710   13.6490 H       1  UNL1        0.0485
     29  H         86.9940   24.9530   14.5790 H       1  UNL1        0.0485
     30  H         89.9280   25.3160   15.0280 H       1  UNL1        0.0561
     31  C         87.0450   29.0120   15.9920 C.2     1  UNL1       -0.0067
     32  C         86.1470   29.9600   15.6980 C.2     1  UNL1       -0.0938
     33  H         87.5470   29.0370   16.8930 H       1  UNL1        0.0663
     34  H         85.6450   29.9330   14.7960 H       1  UNL1        0.0536
     35  H         85.9550   30.7170   16.3730 H       1  UNL1        0.0536
     36  C         88.0810   21.5530   11.5540 C.ar    1  UNL1        0.0028
     37  C         88.1120   22.0840   10.2580 C.ar    1  UNL1       -0.0490
     38  C         87.3600   21.5050    9.2290 C.ar    1  UNL1       -0.0187
     39  C         87.3370   20.3840   11.7800 C.ar    1  UNL1       -0.0490
     40  C         86.5890   19.8010   10.7510 C.ar    1  UNL1       -0.0187
     41  C         86.5660   20.3860    9.4860 C.ar    1  UNL1        0.1285
     42  H         88.6940   22.9130   10.0600 H       1  UNL1        0.0625
     43  H         87.3930   21.9050    8.2780 H       1  UNL1        0.0654
     44  H         87.3440   19.9490   12.7150 H       1  UNL1        0.0625
     45  H         86.0510   18.9380   10.9300 H       1  UNL1        0.0654
     46  O         85.7970   19.7610    8.5310 O.3     1  UNL1       -0.4560
     47  C         84.4260   19.8420    8.6290 C.ar    1  UNL1        0.1284
     48  C         83.8820   21.1260    8.6840 C.ar    1  UNL1       -0.0193
     49  C         82.5000   21.2990    8.7740 C.ar    1  UNL1       -0.0583
     50  C         81.6590   20.1850    8.8000 C.ar    1  UNL1       -0.0615
     51  C         82.1980   18.9020    8.7110 C.ar    1  UNL1       -0.0583
     52  C         83.5800   18.7290    8.6070 C.ar    1  UNL1       -0.0193
     53  H         84.5030   21.9500    8.6580 H       1  UNL1        0.0654
     54  H         82.0990   22.2480    8.8210 H       1  UNL1        0.0619
     55  H         80.6390   20.3110    8.8840 H       1  UNL1        0.0618
     56  H         81.5750   18.0790    8.7220 H       1  UNL1        0.0619
     57  H         83.9760   17.7810    8.5140 H       1  UNL1        0.0654
     58 H          90.0424   20.8762   12.7739 H       1  UNL1        0.0764
     59 H          91.4075   23.3504   15.8629 H       1  UNL1        0.1544
@<TRIPOS>BOND
     1     1    10   ar
     2     1     2   ar
     3     1    21    1
     4     2     3   ar
     5     2     8    1
     6     3     9   ar
     7     3     4    1
     8     4     5    1
     9     4     6    1
    10     4    58    1
    11     5    11    1
    12     5    12    1
    13     6     7    2
    14     7     8    1
    15     7    13    1
    16     8    59    1
    17     9    36    1
    18     9    10   ar
    19    14    15    2
    20    15    16   am
    21    15    31    1
    22    16    20    1
    23    16    17    1
    24    17    22    1
    25    17    18    1
    26    17    23    1
    27    18    19    1
    28    18    25    1
    29    18    24    1
    30    19    21    1
    31    19    26    1
    32    19    27    1
    33    20    28    1
    34    20    29    1
    35    20    21    1
    36    21    30    1
    37    31    32    2
    38    31    33    1
    39    32    34    1
    40    32    35    1
    41    36    37   ar
    42    36    39   ar
    43    37    38   ar
    44    37    42    1
    45    38    43    1
    46    38    41   ar
    47    39    40   ar
    48    39    44    1
    49    40    41   ar
    50    40    45    1
    51    41    46    1
    52    46    47    1
    53    47    52   ar
    54    47    48   ar
    55    48    53    1
    56    48    49   ar
    57    49    50   ar
    58    49    54    1
    59    50    51   ar
    60    50    55    1
    61    51    52   ar
    62    51    56    1
    63    52    57    1
