@<TRIPOS>MOLECULE
UNL
 71 74 0 0 0
SMALL
GASTEIGER

@<TRIPOS>ATOM
      1  C         86.2820   26.0300   17.4580 C.ar    1  UNL1        0.0000
      2  C         86.7940   27.2490   17.9030 C.ar    1  UNL1        0.0000
      3  C         85.9990   28.0830   18.7190 C.ar    1  UNL1        0.0000
      4  C         84.6600   27.7930   19.0900 C.ar    1  UNL1        0.0000
      5  C         84.1010   26.6870   18.4200 C.ar    1  UNL1        0.0000
      6  C         84.9200   25.7980   17.6910 C.ar    1  UNL1        0.0000
      7  H         86.4180   28.9590   19.0680 H       1  UNL1        0.0000
      8  H         84.4960   24.9370   17.3130 H       1  UNL1        0.0000
      9  C         89.2570   24.2320   14.1230 C.ar    1  UNL1        0.0000
     10  N         88.5510   24.1070   15.2770 N.ar    1  UNL1        0.0000
     11  C         87.8000   25.1560   15.6480 C.ar    1  UNL1        0.0000
     12  N         87.6940   26.2810   14.9190 N.ar    1  UNL1        0.0000
     13  C         88.3470   26.3380   13.7530 C.ar    1  UNL1        0.0000
     14  C         89.1440   25.3280   13.2990 C.ar    1  UNL1        0.0000
     15  N         87.0620   25.0390   16.8320 N.pl3   1  UNL1        0.0000
     16  H         88.2440   27.1830   13.1710 H       1  UNL1        0.0000
     17  H         89.6330   25.3830   12.3920 H       1  UNL1        0.0000
     18  H         87.0920   24.1620   17.2790 H       1  UNL1        0.0000
     19  N         92.1000   22.0100   13.6710 N.ar    1  UNL1        0.0000
     20  C         91.5250   23.1770   14.1010 C.ar    1  UNL1        0.0000
     21  C         90.1790   23.1470   13.7830 C.ar    1  UNL1        0.0000
     22  C         89.9460   21.9000   13.0930 C.ar    1  UNL1        0.0000
     23  C         88.8230   21.2940   12.4840 C.ar    1  UNL1        0.0000
     24  C         88.9320   20.0220   11.9020 C.ar    1  UNL1        0.0000
     25  C         90.1510   19.3600   11.8950 C.ar    1  UNL1        0.0000
     26  C         91.2860   19.9410   12.4630 C.ar    1  UNL1        0.0000
     27  C         91.1620   21.2100   13.0550 C.ar    1  UNL1        0.0000
     28  H         92.0140   23.9480   14.5820 H       1  UNL1        0.0000
     29  H         87.9190   21.7900   12.4660 H       1  UNL1        0.0000
     30  H         88.1020   19.5790   11.4790 H       1  UNL1        0.0000
     31  H         90.2210   18.4240   11.4650 H       1  UNL1        0.0000
     32  H         92.1950   19.4510   12.4480 H       1  UNL1        0.0000
     33  C         93.4950   21.6670   13.8380 C.3     1  UNL1        0.0000
     34  H         94.1050   22.4510   13.4400 H       1  UNL1        0.0000
     35  H         93.7010   20.7550   13.3170 H       1  UNL1        0.0000
     36  H         93.7090   21.5410   14.8780 H       1  UNL1        0.0000
     37  N         82.7300   26.3750   18.3740 N.am    1  UNL1        0.0000
     38  C         81.8190   26.9880   17.5430 C.2     1  UNL1        0.0000
     39  O         80.6650   26.5730   17.4650 O.2     1  UNL1        0.0000
     40  H         82.3990   25.6710   18.9770 H       1  UNL1        0.0000
     41  C         82.2730   28.1690   16.7620 C.2     1  UNL1        0.0000
     42  C         81.8930   29.4040   17.1100 C.2     1  UNL1        0.0000
     43  H         82.8890   28.0350   15.9430 H       1  UNL1        0.0000
     44  H         81.2790   29.5430   17.9270 H       1  UNL1        0.0000
     45  H         82.2130   30.2170   16.5610 H       1  UNL1        0.0000
     46  N         84.0530   28.5790   20.0800 N.pl3   1  UNL1        0.0000
     47  C         83.0000   29.5810   19.8860 C.3     1  UNL1        0.0000
     48  H         83.1970   30.1390   18.9950 H       1  UNL1        0.0000
     49  H         82.9800   30.2430   20.7260 H       1  UNL1        0.0000
     50  H         82.0530   29.0890   19.7960 H       1  UNL1        0.0000
     51  C         83.9690   27.9670   21.4370 C.3     1  UNL1        0.0000
     52  H         84.5010   28.5790   22.1350 H       1  UNL1        0.0000
     53  H         84.4010   26.9890   21.4060 H       1  UNL1        0.0000
     54  C         82.4940   27.8540   21.8790 C.3     1  UNL1        0.0000
     55  H         81.8860   27.8320   20.9990 H       1  UNL1        0.0000
     56  H         82.3080   28.7000   22.5080 H       1  UNL1        0.0000
     57  N         82.1650   26.6640   22.6910 N.4     1  UNL1        0.0000
     58  H         82.9430   26.4850   23.3260 H       1  UNL1        0.0000
     59  C         80.9710   26.8740   23.5080 C.3     1  UNL1        0.0000
     60  H         80.1500   27.1450   22.8770 H       1  UNL1        0.0000
     61  H         81.1530   27.6600   24.2110 H       1  UNL1        0.0000
     62  H         80.7350   25.9730   24.0340 H       1  UNL1        0.0000
     63  C         81.9660   25.5160   21.8000 C.3     1  UNL1        0.0000
     64  H         81.1500   24.9240   22.1590 H       1  UNL1        0.0000
     65  H         82.8560   24.9220   21.7800 H       1  UNL1        0.0000
     66  H         81.7470   25.8640   20.8120 H       1  UNL1        0.0000
     67  O         88.0860   27.6760   17.7270 O.3     1  UNL1        0.0000
     68  C         88.2550   28.7570   16.8110 C.3     1  UNL1        0.0000
     69  H         89.2350   28.7130   16.3840 H       1  UNL1        0.0000
     70  H         88.1330   29.6860   17.3280 H       1  UNL1        0.0000
     71  H         87.5240   28.6830   16.0330 H       1  UNL1        0.0000
@<TRIPOS>BOND
     1     1    15    1
     2     1     6   ar
     3     1     2   ar
     4     2    67    1
     5     2     3   ar
     6     3     7    1
     7     3     4   ar
     8     4     5   ar
     9     4    46    1
    10     5     6   ar
    11     5    37    1
    12     6     8    1
    13     9    14   ar
    14     9    21    1
    15     9    10   ar
    16    10    11   ar
    17    11    12   ar
    18    11    15    1
    19    12    13   ar
    20    13    16    1
    21    13    14   ar
    22    14    17    1
    23    15    18    1
    24    19    27   ar
    25    19    33    1
    26    19    20   ar
    27    20    21   ar
    28    20    28    1
    29    21    22   ar
    30    22    23   ar
    31    22    27   ar
    32    23    24   ar
    33    23    29    1
    34    24    30    1
    35    24    25   ar
    36    25    31    1
    37    25    26   ar
    38    26    32    1
    39    26    27   ar
    40    33    35    1
    41    33    34    1
    42    33    36    1
    43    37    38   am
    44    37    40    1
    45    38    41    1
    46    38    39    2
    47    41    43    1
    48    41    42    2
    49    42    45    1
    50    42    44    1
    51    46    47    1
    52    46    51    1
    53    47    48    1
    54    47    50    1
    55    47    49    1
    56    51    53    1
    57    51    54    1
    58    51    52    1
    59    54    55    1
    60    54    56    1
    61    54    57    1
    62    57    63    1
    63    57    58    1
    64    57    59    1
    65    59    60    1
    66    59    62    1
    67    59    61    1
    68    63    66    1
    69    63    65    1
    70    63    64    1
    71    67    68    1
    72    68    71    1
    73    68    69    1
    74    68    70    1
