@<TRIPOS>MOLECULE
UNL
 57 59 0 0 0
SMALL
GASTEIGER

@<TRIPOS>ATOM
      1  N         82.1250   29.1430   19.6990 N.am    1  UNL1        0.0000
      2  C         81.4730   30.3860   19.6970 C.2     1  UNL1        0.0000
      3  O         82.0560   31.4490   19.9100 O.2     1  UNL1        0.0000
      4  C         81.3940   27.9340   19.6600 C.ar    1  UNL1        0.0000
      5  C         80.6330   27.5400   20.7640 C.ar    1  UNL1        0.0000
      6  C         80.0450   26.2740   20.7710 C.ar    1  UNL1        0.0000
      7  C         80.2000   25.4130   19.6820 C.ar    1  UNL1        0.0000
      8  C         80.9660   25.8170   18.5890 C.ar    1  UNL1        0.0000
      9  C         81.5690   27.0730   18.5790 C.ar    1  UNL1        0.0000
     10  H         80.5080   28.1780   21.5650 H       1  UNL1        0.0000
     11  H         79.4900   25.9710   21.5870 H       1  UNL1        0.0000
     12  H         81.0870   25.1820   17.7840 H       1  UNL1        0.0000
     13  H         82.1430   27.3650   17.7730 H       1  UNL1        0.0000
     14  O         79.5890   24.1920   19.8020 O.3     1  UNL1        0.0000
     15  C         79.5250   23.6370   21.1140 C.3     1  UNL1        0.0000
     16  C         80.9210   23.4880   21.7390 C.3     1  UNL1        0.0000
     17  C         81.0080   22.0630   22.2810 C.3     1  UNL1        0.0000
     18  C         79.5810   21.5190   22.2700 C.3     1  UNL1        0.0000
     19  C         78.9670   22.2160   21.0580 C.3     1  UNL1        0.0000
     20  H         78.9130   24.3010   21.6880 H       1  UNL1        0.0000
     21  H         81.0460   24.1930   22.5350 H       1  UNL1        0.0000
     22  H         81.6880   23.6730   21.0180 H       1  UNL1        0.0000
     23  H         81.3960   22.0670   23.2790 H       1  UNL1        0.0000
     24  H         81.6620   21.4570   21.6890 H       1  UNL1        0.0000
     25  H         79.5300   20.4530   22.2090 H       1  UNL1        0.0000
     26  H         79.2610   21.7280   20.1520 H       1  UNL1        0.0000
     27  H         77.8970   22.1960   21.0750 H       1  UNL1        0.0000
     28  N         78.8760   21.8510   23.5080 N.4     1  UNL1        0.0000
     29  H         78.9350   22.8550   23.6740 H       1  UNL1        0.0000
     30  H         79.3030   21.3520   24.2870 H       1  UNL1        0.0000
     31  H         77.8960   21.5770   23.4250 H       1  UNL1        0.0000
     32  C         79.9970   30.3870   19.4330 C.2     1  UNL1        0.0000
     33  C         79.1160   30.8600   20.3270 C.2     1  UNL1        0.0000
     34  H         79.6480   30.0130   18.5370 H       1  UNL1        0.0000
     35  H         79.4470   31.2380   21.2290 H       1  UNL1        0.0000
     36  H         78.1060   30.8470   20.1140 H       1  UNL1        0.0000
     37  C         83.5710   29.0940   20.0160 C.3     1  UNL1        0.0000
     38  H         83.7790   30.0460   20.4580 H       1  UNL1        0.0000
     39  C         85.9750   27.6000   17.3930 C.ar    1  UNL1        0.0000
     40  C         85.7110   28.4040   16.2740 C.ar    1  UNL1        0.0000
     41  C         84.8080   29.4740   16.4150 C.ar    1  UNL1        0.0000
     42  C         84.1550   29.7130   17.6250 C.ar    1  UNL1        0.0000
     43  C         84.3840   28.8910   18.7350 C.ar    1  UNL1        0.0000
     44  C         85.3140   27.8480   18.6100 C.ar    1  UNL1        0.0000
     45  H         84.6240   30.0920   15.6100 H       1  UNL1        0.0000
     46  H         83.4970   30.5040   17.7020 H       1  UNL1        0.0000
     47  H         85.5170   27.2520   19.4260 H       1  UNL1        0.0000
     48  C         86.3040   28.1630   14.9060 C.3     1  UNL1        0.0000
     49  F         87.6590   28.1120   14.8620 F       1  UNL1        0.0000
     50  F         85.8750   26.9850   14.3710 F       1  UNL1        0.0000
     51  F         85.9420   29.1260   14.0140 F       1  UNL1        0.0000
     52  N         87.6480   25.6170   17.2940 N.1     1  UNL1        0.0000
     53  C         86.8880   26.4920   17.3580 C.1     1  UNL1        0.0000
     54  C         84.0030   28.0750   21.0900 C.3     1  UNL1        0.0000
     55  H         84.9900   27.7250   20.8740 H       1  UNL1        0.0000
     56  H         83.3240   27.2480   21.0900 H       1  UNL1        0.0000
     57  H         83.9930   28.5440   22.0520 H       1  UNL1        0.0000
@<TRIPOS>BOND
     1     1     4    1
     2     1     2   am
     3     1    37    1
     4     2    32    1
     5     2     3    2
     6     4     9   ar
     7     4     5   ar
     8     5     6   ar
     9     5    10    1
    10     6     7   ar
    11     6    11    1
    12     7     8   ar
    13     7    14    1
    14     8    12    1
    15     8     9   ar
    16     9    13    1
    17    14    15    1
    18    15    19    1
    19    15    20    1
    20    15    16    1
    21    16    22    1
    22    16    17    1
    23    16    21    1
    24    17    24    1
    25    17    18    1
    26    17    23    1
    27    18    19    1
    28    18    25    1
    29    18    28    1
    30    19    26    1
    31    19    27    1
    32    28    31    1
    33    28    29    1
    34    28    30    1
    35    32    34    1
    36    32    33    2
    37    33    36    1
    38    33    35    1
    39    37    43    1
    40    37    38    1
    41    37    54    1
    42    39    40   ar
    43    39    53    1
    44    39    44   ar
    45    40    48    1
    46    40    41   ar
    47    41    45    1
    48    41    42   ar
    49    42    46    1
    50    42    43   ar
    51    43    44   ar
    52    44    47    1
    53    48    51    1
    54    48    50    1
    55    48    49    1
    56    52    53    3
    57    54    55    1
    58    54    56    1
    59    54    57    1
