@<TRIPOS>MOLECULE
UNL
 53 55 0 0 0
SMALL
GASTEIGER

@<TRIPOS>ATOM
      1  C         85.8900   27.3900   16.4760 C.ar    1  UNL1        0.0000
      2  C         86.6010   27.7850   15.3420 C.ar    1  UNL1        0.0000
      3  C         87.6860   27.0230   14.9140 C.ar    1  UNL1        0.0000
      4  F         88.2890   27.4090   13.7810 F       1  UNL1        0.0000
      5  C         88.0990   25.8910   15.6200 C.ar    1  UNL1        0.0000
      6  C         87.4260   25.5490   16.7990 C.ar    1  UNL1        0.0000
      7  C         86.3100   26.2790   17.2130 C.ar    1  UNL1        0.0000
      8  H         86.3250   28.6330   14.8230 H       1  UNL1        0.0000
      9  H         87.7570   24.7540   17.3660 H       1  UNL1        0.0000
     10  H         85.7950   25.9980   18.0620 H       1  UNL1        0.0000
     11  N         84.6350   27.9890   16.7480 N.am    1  UNL1        0.0000
     12  C         83.4470   27.2710   16.5420 C.2     1  UNL1        0.0000
     13  O         82.3590   27.5990   17.0150 O.2     1  UNL1        0.0000
     14  C         83.5480   26.0440   15.6880 C.2     1  UNL1        0.0000
     15  C         83.9730   26.0910   14.4160 C.2     1  UNL1        0.0000
     16  H         83.2810   25.1330   16.0920 H       1  UNL1        0.0000
     17  H         84.2450   26.9930   13.9950 H       1  UNL1        0.0000
     18  H         84.0300   25.2240   13.8590 H       1  UNL1        0.0000
     19  C         84.5800   29.2580   17.5120 C.3     1  UNL1        0.0000
     20  H         85.5940   29.5970   17.5470 H       1  UNL1        0.0000
     21 CL         82.6120   28.5510   23.2030 Cl      1  UNL1        0.0000
     22  C         83.1350   28.6990   21.5710 C.ar    1  UNL1        0.0000
     23  C         82.5170   29.6170   20.7270 C.ar    1  UNL1        0.0000
     24  C         82.9730   29.7670   19.4150 C.ar    1  UNL1        0.0000
     25  C         84.0530   29.0080   18.9300 C.ar    1  UNL1        0.0000
     26  C         84.6460   28.0690   19.7930 C.ar    1  UNL1        0.0000
     27  C         84.1870   27.9160   21.1050 C.ar    1  UNL1        0.0000
     28  H         81.7250   30.1840   21.0690 H       1  UNL1        0.0000
     29  H         82.5110   30.4470   18.7910 H       1  UNL1        0.0000
     30  H         85.4280   27.4890   19.4540 H       1  UNL1        0.0000
     31  H         84.6280   27.2210   21.7280 H       1  UNL1        0.0000
     32  C         83.8210   30.4170   16.8410 C.3     1  UNL1        0.0000
     33  H         84.2270   30.5920   15.8670 H       1  UNL1        0.0000
     34  H         83.9230   31.3020   17.4330 H       1  UNL1        0.0000
     35  H         82.7850   30.1630   16.7550 H       1  UNL1        0.0000
     36  O         89.1140   25.0360   15.2800 O.3     1  UNL1        0.0000
     37  C         88.8820   24.1020   14.2230 C.3     1  UNL1        0.0000
     38  C         89.5060   22.7260   14.4970 C.3     1  UNL1        0.0000
     39  C         90.2830   22.3290   13.2410 C.3     1  UNL1        0.0000
     40  C         89.9060   23.3420   12.1610 C.3     1  UNL1        0.0000
     41  C         89.5930   24.6010   12.9640 C.3     1  UNL1        0.0000
     42  H         87.8190   24.0180   14.1260 H       1  UNL1        0.0000
     43  H         88.7380   22.0070   14.6950 H       1  UNL1        0.0000
     44  H         90.1510   22.7620   15.3500 H       1  UNL1        0.0000
     45  H         90.0110   21.3410   12.9330 H       1  UNL1        0.0000
     46  H         91.3390   22.3310   13.4210 H       1  UNL1        0.0000
     47  H         90.6780   23.4920   11.4360 H       1  UNL1        0.0000
     48  H         90.4950   25.1160   13.2190 H       1  UNL1        0.0000
     49  H         88.9930   25.2920   12.4090 H       1  UNL1        0.0000
     50  N         88.7540   22.8910   11.3830 N.4     1  UNL1        0.0000
     51  H         89.0080   22.0610   10.8490 H       1  UNL1        0.0000
     52  H         88.4650   23.6320   10.7450 H       1  UNL1        0.0000
     53  H         87.9840   22.6680   12.0150 H       1  UNL1        0.0000
@<TRIPOS>BOND
     1     1     2   ar
     2     1    11    1
     3     1     7   ar
     4     2     8    1
     5     2     3   ar
     6     3     4    1
     7     3     5   ar
     8     5    36    1
     9     5     6   ar
    10     6     7   ar
    11     6     9    1
    12     7    10    1
    13    11    12   am
    14    11    19    1
    15    12    14    1
    16    12    13    2
    17    14    15    2
    18    14    16    1
    19    15    18    1
    20    15    17    1
    21    19    32    1
    22    19    20    1
    23    19    25    1
    24    21    22    1
    25    22    23   ar
    26    22    27   ar
    27    23    24   ar
    28    23    28    1
    29    24    29    1
    30    24    25   ar
    31    25    26   ar
    32    26    30    1
    33    26    27   ar
    34    27    31    1
    35    32    33    1
    36    32    35    1
    37    32    34    1
    38    36    37    1
    39    37    41    1
    40    37    42    1
    41    37    38    1
    42    38    39    1
    43    38    43    1
    44    38    44    1
    45    39    40    1
    46    39    45    1
    47    39    46    1
    48    40    50    1
    49    40    47    1
    50    40    41    1
    51    41    49    1
    52    41    48    1
    53    50    52    1
    54    50    51    1
    55    50    53    1
