@<TRIPOS>MOLECULE
UNL
 69 72 0 0 0
SMALL
GASTEIGER

@<TRIPOS>ATOM
      1  C         84.9400   27.5720   16.2470 C.ar    1  UNL1        0.0000
      2  C         86.2190   27.8030   16.7490 C.ar    1  UNL1        0.0000
      3  C         87.3430   27.3740   16.0440 C.ar    1  UNL1        0.0000
      4  F         88.5360   27.6110   16.6010 F       1  UNL1        0.0000
      5  C         87.2270   26.7450   14.8020 C.ar    1  UNL1        0.0000
      6  C         85.9400   26.5090   14.3020 C.ar    1  UNL1        0.0000
      7  C         84.8000   26.9300   15.0120 C.ar    1  UNL1        0.0000
      8  H         86.3360   28.2940   17.6490 H       1  UNL1        0.0000
      9  H         85.8260   26.0200   13.3990 H       1  UNL1        0.0000
     10  H         83.8600   26.7650   14.6200 H       1  UNL1        0.0000
     11  N         83.8080   28.1450   16.9060 N.am    1  UNL1        0.0000
     12  C         82.6120   27.4250   16.7830 C.2     1  UNL1        0.0000
     13  O         82.5250   26.3760   16.1380 O.2     1  UNL1        0.0000
     14  C         81.3930   27.9470   17.4670 C.2     1  UNL1        0.0000
     15  C         80.8140   27.2450   18.4500 C.2     1  UNL1        0.0000
     16  H         80.9930   28.8540   17.1820 H       1  UNL1        0.0000
     17  H         81.2120   26.3360   18.7370 H       1  UNL1        0.0000
     18  H         79.9710   27.6100   18.9190 H       1  UNL1        0.0000
     19  C         83.9750   29.4240   17.6570 C.3     1  UNL1        0.0000
     20  H         85.0100   29.6410   17.4960 H       1  UNL1        0.0000
     21 CL         82.6470   28.5640   23.5110 Cl      1  UNL1        0.0000
     22  C         83.0710   28.8570   21.8700 C.ar    1  UNL1        0.0000
     23  C         84.0420   28.0740   21.2540 C.ar    1  UNL1        0.0000
     24  C         84.3590   28.2880   19.9080 C.ar    1  UNL1        0.0000
     25  C         83.6900   29.2730   19.1570 C.ar    1  UNL1        0.0000
     26  C         82.7590   30.0880   19.8170 C.ar    1  UNL1        0.0000
     27  C         82.4400   29.8740   21.1620 C.ar    1  UNL1        0.0000
     28  H         84.5270   27.3360   21.7880 H       1  UNL1        0.0000
     29  H         85.0930   27.7180   19.4610 H       1  UNL1        0.0000
     30  H         82.3020   30.8580   19.3030 H       1  UNL1        0.0000
     31  H         81.7380   30.4700   21.6280 H       1  UNL1        0.0000
     32  C         83.1990   30.6350   17.1170 C.3     1  UNL1        0.0000
     33  H         83.8160   31.5080   17.1720 H       1  UNL1        0.0000
     34  H         82.3170   30.7840   17.7040 H       1  UNL1        0.0000
     35  H         82.9230   30.4570   16.0980 H       1  UNL1        0.0000
     36  O         88.2700   26.3300   14.0060 O.3     1  UNL1        0.0000
     37  C         88.6350   24.9390   14.0500 C.3     1  UNL1        0.0000
     38  C         88.8170   24.4550   15.4900 C.3     1  UNL1        0.0000
     39  C         89.9070   23.3950   15.4610 C.3     1  UNL1        0.0000
     40  C         90.7770   23.7330   14.2580 C.3     1  UNL1        0.0000
     41  C         90.0100   24.7370   13.3910 C.3     1  UNL1        0.0000
     42  H         87.8530   24.4040   13.5540 H       1  UNL1        0.0000
     43  H         87.9040   24.0340   15.8560 H       1  UNL1        0.0000
     44  H         89.0850   25.2640   16.1360 H       1  UNL1        0.0000
     45  H         89.4780   22.4220   15.3500 H       1  UNL1        0.0000
     46  H         90.4740   23.3870   16.3690 H       1  UNL1        0.0000
     47  H         91.6760   24.2150   14.5820 H       1  UNL1        0.0000
     48  H         90.5370   25.6670   13.3500 H       1  UNL1        0.0000
     49  H         89.9040   24.3770   12.3900 H       1  UNL1        0.0000
     50  N         91.3910   22.5870   13.5860 N.am    1  UNL1        0.0000
     51  C         90.9950   21.4210   13.0510 C.2     1  UNL1        0.0000
     52  N         89.6660   21.1680   12.9410 N.am    1  UNL1        0.0000
     53  O         91.8460   20.6420   12.6300 O.2     1  UNL1        0.0000
     54  H         92.3660   22.7020   13.5030 H       1  UNL1        0.0000
     55  H         89.0300   21.7930   13.3620 H       1  UNL1        0.0000
     56  C         89.1350   19.9990   12.2170 C.3     1  UNL1        0.0000
     57  C         89.7540   19.8390   10.8130 C.3     1  UNL1        0.0000
     58  C         89.2980   21.0590   10.0220 C.3     1  UNL1        0.0000
     59  S         87.6310   21.3600   10.5930 S.O2    1  UNL1        0.0000
     60  C         87.6450   20.1620   11.9200 C.3     1  UNL1        0.0000
     61  O         87.5680   22.6810   11.1900 O.2     1  UNL1        0.0000
     62  O         86.6870   20.9280    9.5850 O.2     1  UNL1        0.0000
     63  H         89.3570   19.1700   12.8570 H       1  UNL1        0.0000
     64  H         89.4020   18.9410   10.3490 H       1  UNL1        0.0000
     65  H         90.8210   19.7710   10.8550 H       1  UNL1        0.0000
     66  H         89.3070   20.8550    8.9710 H       1  UNL1        0.0000
     67  H         89.9370   21.9040   10.1700 H       1  UNL1        0.0000
     68  H         87.1200   20.5300   12.7770 H       1  UNL1        0.0000
     69  H         87.1630   19.2420   11.6640 H       1  UNL1        0.0000
@<TRIPOS>BOND
     1     1     7   ar
     2     1     2   ar
     3     1    11    1
     4     2     3   ar
     5     2     8    1
     6     3     5   ar
     7     3     4    1
     8     5    36    1
     9     5     6   ar
    10     6     9    1
    11     6     7   ar
    12     7    10    1
    13    11    12   am
    14    11    19    1
    15    12    13    2
    16    12    14    1
    17    14    16    1
    18    14    15    2
    19    15    17    1
    20    15    18    1
    21    19    32    1
    22    19    20    1
    23    19    25    1
    24    21    22    1
    25    22    27   ar
    26    22    23   ar
    27    23    24   ar
    28    23    28    1
    29    24    25   ar
    30    24    29    1
    31    25    26   ar
    32    26    30    1
    33    26    27   ar
    34    27    31    1
    35    32    35    1
    36    32    33    1
    37    32    34    1
    38    36    37    1
    39    37    41    1
    40    37    42    1
    41    37    38    1
    42    38    39    1
    43    38    43    1
    44    38    44    1
    45    39    40    1
    46    39    45    1
    47    39    46    1
    48    40    41    1
    49    40    50    1
    50    40    47    1
    51    41    49    1
    52    41    48    1
    53    50    51   am
    54    50    54    1
    55    51    53    2
    56    51    52   am
    57    52    56    1
    58    52    55    1
    59    56    57    1
    60    56    60    1
    61    56    63    1
    62    57    58    1
    63    57    64    1
    64    57    65    1
    65    58    66    1
    66    58    67    1
    67    58    59    1
    68    59    62    2
    69    59    61    2
    70    59    60    1
    71    60    69    1
    72    60    68    1
