@<TRIPOS>MOLECULE
UNL
 69 72 0 0 0
SMALL
GASTEIGER

@<TRIPOS>ATOM
      1  C         84.9330   27.8340   16.1240 C.ar    1  UNL1        0.0000
      2  C         86.1830   28.1750   16.6490 C.ar    1  UNL1        0.0000
      3  C         87.3850   27.8190   16.0020 C.ar    1  UNL1        0.0000
      4 CL         88.8160   28.2870   16.8490 Cl      1  UNL1        0.0000
      5  C         87.3610   27.0940   14.8040 C.ar    1  UNL1        0.0000
      6  C         86.0920   26.7130   14.3120 C.ar    1  UNL1        0.0000
      7  C         84.8930   27.0730   14.9600 C.ar    1  UNL1        0.0000
      8  H         86.2270   28.7010   17.5370 H       1  UNL1        0.0000
      9  H         86.0420   26.1520   13.4470 H       1  UNL1        0.0000
     10  H         83.9850   26.7710   14.5720 H       1  UNL1        0.0000
     11  N         83.7440   28.2050   16.8390 N.am    1  UNL1        0.0000
     12  C         82.6380   27.3540   16.7100 C.2     1  UNL1        0.0000
     13  O         82.6320   26.3690   15.9670 O.2     1  UNL1        0.0000
     14  C         81.4390   27.6010   17.5740 C.2     1  UNL1        0.0000
     15  C         81.0030   26.6680   18.4360 C.2     1  UNL1        0.0000
     16  H         80.9410   28.5020   17.5050 H       1  UNL1        0.0000
     17  H         81.4960   25.7650   18.5110 H       1  UNL1        0.0000
     18  H         80.1750   26.8550   19.0230 H       1  UNL1        0.0000
     19  C         83.7580   29.4990   17.5810 C.3     1  UNL1        0.0000
     20  H         84.7450   29.8860   17.4340 H       1  UNL1        0.0000
     21 CL         82.8840   28.5710   23.5120 Cl      1  UNL1        0.0000
     22  C         83.1480   28.8540   21.8350 C.ar    1  UNL1        0.0000
     23  C         84.0810   28.0910   21.1430 C.ar    1  UNL1        0.0000
     24  C         84.2820   28.3110   19.7760 C.ar    1  UNL1        0.0000
     25  C         83.5500   29.2930   19.0840 C.ar    1  UNL1        0.0000
     26  C         82.6210   30.0580   19.8090 C.ar    1  UNL1        0.0000
     27  C         82.4230   29.8420   21.1770 C.ar    1  UNL1        0.0000
     28  H         84.6250   27.3650   21.6350 H       1  UNL1        0.0000
     29  H         84.9780   27.7430   19.2670 H       1  UNL1        0.0000
     30  H         82.0770   30.7900   19.3260 H       1  UNL1        0.0000
     31  H         81.7390   30.4140   21.6960 H       1  UNL1        0.0000
     32  C         82.8440   30.5940   17.0070 C.3     1  UNL1        0.0000
     33  H         83.4440   31.3760   16.5890 H       1  UNL1        0.0000
     34  H         82.2320   30.9940   17.7880 H       1  UNL1        0.0000
     35  H         82.2210   30.1760   16.2440 H       1  UNL1        0.0000
     36  O         88.4030   26.6150   14.0480 O.3     1  UNL1        0.0000
     37  C         88.6450   25.2120   13.8660 C.3     1  UNL1        0.0000
     38  C         88.8420   24.4870   15.1970 C.3     1  UNL1        0.0000
     39  C         89.7640   23.3170   14.8820 C.3     1  UNL1        0.0000
     40  C         90.7220   23.8650   13.8350 C.3     1  UNL1        0.0000
     41  C         89.9760   24.9870   13.1000 C.3     1  UNL1        0.0000
     42  H         87.7910   24.8370   13.3390 H       1  UNL1        0.0000
     43  H         87.9040   24.1350   15.5750 H       1  UNL1        0.0000
     44  H         89.2540   25.1320   15.9450 H       1  UNL1        0.0000
     45  H         89.2080   22.4910   14.4930 H       1  UNL1        0.0000
     46  H         90.2720   22.9520   15.7510 H       1  UNL1        0.0000
     47  H         91.5890   24.3270   14.2590 H       1  UNL1        0.0000
     48  H         90.5610   25.8840   13.1040 H       1  UNL1        0.0000
     49  H         89.7950   24.7240   12.0790 H       1  UNL1        0.0000
     50  N         91.4450   22.8380   13.0830 N.am    1  UNL1        0.0000
     51  C         91.1400   21.8250   12.2350 C.2     1  UNL1        0.0000
     52  N         89.9480   21.8410   11.6020 N.am    1  UNL1        0.0000
     53  O         91.9790   20.9520   12.0420 O.2     1  UNL1        0.0000
     54  H         92.4150   22.8990   13.2350 H       1  UNL1        0.0000
     55  H         89.2700   22.4990   11.8760 H       1  UNL1        0.0000
     56  C         89.6310   20.8980   10.5040 C.3     1  UNL1        0.0000
     57  C         88.4100   21.3160    9.6550 C.3     1  UNL1        0.0000
     58  C         87.1940   21.2080   10.5700 C.3     1  UNL1        0.0000
     59  S         87.5680   19.8410   11.6650 S.O2    1  UNL1        0.0000
     60  C         89.2180   19.5340   11.0530 C.3     1  UNL1        0.0000
     61  O         87.6930   20.3540   13.0160 O.2     1  UNL1        0.0000
     62  O         86.7250   18.7090   11.3360 O.2     1  UNL1        0.0000
     63  H         90.5280   20.8840    9.9190 H       1  UNL1        0.0000
     64  H         88.3010   20.6610    8.8160 H       1  UNL1        0.0000
     65  H         88.5240   22.3090    9.2740 H       1  UNL1        0.0000
     66  H         86.3120   21.0050   10.0020 H       1  UNL1        0.0000
     67  H         87.0090   22.1170   11.1050 H       1  UNL1        0.0000
     68  H         89.8710   19.2230   11.8420 H       1  UNL1        0.0000
     69  H         89.2620   18.7520   10.3250 H       1  UNL1        0.0000
@<TRIPOS>BOND
     1     1     7   ar
     2     1     2   ar
     3     1    11    1
     4     2     3   ar
     5     2     8    1
     6     3     5   ar
     7     3     4    1
     8     5    36    1
     9     5     6   ar
    10     6     9    1
    11     6     7   ar
    12     7    10    1
    13    11    12   am
    14    11    19    1
    15    12    13    2
    16    12    14    1
    17    14    16    1
    18    14    15    2
    19    15    17    1
    20    15    18    1
    21    19    32    1
    22    19    20    1
    23    19    25    1
    24    21    22    1
    25    22    23   ar
    26    22    27   ar
    27    23    24   ar
    28    23    28    1
    29    24    25   ar
    30    24    29    1
    31    25    26   ar
    32    26    30    1
    33    26    27   ar
    34    27    31    1
    35    32    35    1
    36    32    33    1
    37    32    34    1
    38    36    37    1
    39    37    41    1
    40    37    42    1
    41    37    38    1
    42    38    39    1
    43    38    43    1
    44    38    44    1
    45    39    40    1
    46    39    45    1
    47    39    46    1
    48    40    50    1
    49    40    41    1
    50    40    47    1
    51    41    49    1
    52    41    48    1
    53    50    51   am
    54    50    54    1
    55    51    52   am
    56    51    53    2
    57    52    56    1
    58    52    55    1
    59    56    57    1
    60    56    63    1
    61    56    60    1
    62    57    64    1
    63    57    65    1
    64    57    58    1
    65    58    66    1
    66    58    67    1
    67    58    59    1
    68    59    60    1
    69    59    62    2
    70    59    61    2
    71    60    69    1
    72    60    68    1
