@<TRIPOS>MOLECULE
UNL
 154 160 0 0 0
SMALL
GASTEIGER

@<TRIPOS>ATOM
      1  C         81.2080   26.3890   21.9710 C.3     1  UNL1        0.0573
      2  C         81.9880   27.0420   20.9990 C.3     1  UNL1        0.0093
      3  C         81.3730   28.1030   20.1100 C.3     1  UNL1       -0.0359
      4  C         82.1600   29.3200   19.5760 C.3     1  UNL1       -0.0000
      5  C         82.5890   29.0820   18.0960 C.3     1  UNL1        0.0976
      6  O         82.8880   27.7890   17.5860 O.3     1  UNL1       -0.4630
      7  C         83.2670   27.6830   16.2560 C.2     1  UNL1        0.3259
      8  C         83.1230   26.1940   15.8170 C.3     1  UNL1        0.1220
      9  N         84.3860   25.4390   15.8810 N.3     1  UNL1       -0.2241
     10  N         84.9750   25.4540   17.1720 N.am    1  UNL1       -0.2348
     11  C         85.9580   26.4430   17.3910 C.2     1  UNL1        0.2495
     12  C         87.3840   25.9070   17.5620 C.3     1  UNL1        0.1032
     13  C         87.8120   25.9200   19.0480 C.3     1  UNL1        0.0019
     14  C         88.2220   27.2750   19.6710 C.3     1  UNL1        0.0765
     15  C         87.0770   28.1860   20.2100 C.3     1  UNL1        0.0386
     16  N         86.7530   27.9510   21.6300 N.pl3   1  UNL1       -0.3252
     17  C         87.8900   27.8360   22.5240 C.3     1  UNL1        0.0357
     18  C         88.7850   26.7240   21.9620 C.3     1  UNL1        0.0637
     19  O         89.2700   27.0600   20.6500 O.3     1  UNL1       -0.3734
     20  O         85.7580   27.6570   17.3370 O.2     1  UNL1       -0.2723
     21  C         84.0880   25.0340   18.2690 C.3     1  UNL1        0.0310
     22  C         82.5810   25.2660   18.1050 C.3     1  UNL1       -0.0337
     23  C         82.0900   25.4520   16.6700 C.3     1  UNL1       -0.0242
     24  O         83.6490   28.5680   15.5400 O.2     1  UNL1       -0.2490
     25  C         83.1840   27.1720   21.7450 C.ar    1  UNL1       -0.0194
     26  C         82.7230   27.8330   22.8820 C.ar    1  UNL1        0.0338
     27  C         83.5800   28.7530   23.5120 C.ar    1  UNL1       -0.0386
     28  C         84.9410   28.8020   23.0740 C.ar    1  UNL1       -0.0389
     29  C         85.4560   27.9450   22.0930 C.ar    1  UNL1        0.0302
     30  C         84.5480   27.1120   21.4580 C.ar    1  UNL1       -0.0354
     31  N         81.3910   27.3870   22.9820 N.pl3   1  UNL1       -0.3222
     32  H         80.5480   28.5050   20.6610 H       1  UNL1        0.0278
     33  H         81.2020   27.5510   19.2100 H       1  UNL1        0.0278
     34  H         83.4680   29.6730   17.9420 H       1  UNL1        0.0703
     35  H         81.6920   29.3250   17.5640 H       1  UNL1        0.0703
     36  H         82.8050   26.2420   14.7970 H       1  UNL1        0.0592
     37  H         85.0440   25.8480   15.2180 H       1  UNL1        0.1454
     38  H         87.4540   24.8720   17.2980 H       1  UNL1        0.0596
     39  H         88.6490   25.2600   19.1450 H       1  UNL1        0.0313
     40  H         86.9320   25.6340   19.5840 H       1  UNL1        0.0313
     41  H         88.5900   27.8580   18.8530 H       1  UNL1        0.0612
     42  H         86.1980   28.0040   19.6270 H       1  UNL1        0.0489
     43  H         87.4160   29.1980   20.1290 H       1  UNL1        0.0489
     44  H         87.5590   27.5800   23.5100 H       1  UNL1        0.0486
     45  H         88.4220   28.7620   22.5900 H       1  UNL1        0.0486
     46  H         88.2200   25.8170   21.9020 H       1  UNL1        0.0575
     47  H         89.6260   26.6040   22.6130 H       1  UNL1        0.0575
     48  H         84.3980   25.5610   19.1470 H       1  UNL1        0.0480
     49  H         84.1920   23.9710   18.3040 H       1  UNL1        0.0480
     50  H         82.3220   26.1450   18.6580 H       1  UNL1        0.0281
     51  H         82.1090   24.3740   18.4620 H       1  UNL1        0.0281
     52  H         81.9080   24.4900   16.2370 H       1  UNL1        0.0287
     53  H         81.1930   26.0340   16.6930 H       1  UNL1        0.0287
     54  H         83.2380   29.3730   24.2620 H       1  UNL1        0.0637
     55  H         85.5700   29.5000   23.5000 H       1  UNL1        0.0637
     56  H         84.8880   26.4330   20.7600 H       1  UNL1        0.0639
     57  C         80.3000   23.9690   21.5750 C.ar    1  UNL1        0.0746
     58  C         81.1650   24.8990   22.1680 C.ar    1  UNL1       -0.0027
     59  C         82.2160   24.3350   22.9360 C.ar    1  UNL1       -0.0536
     60  C         82.3710   22.9700   23.1360 C.ar    1  UNL1       -0.0433
     61  C         81.4410   22.1500   22.5650 C.ar    1  UNL1        0.0280
     62  N         80.4310   22.6160   21.8110 N.ar    1  UNL1       -0.2569
     63  H         82.9020   24.9730   23.3690 H       1  UNL1        0.0622
     64  H         83.1540   22.5920   23.6920 H       1  UNL1        0.0633
     65  H         81.5160   21.1320   22.7190 H       1  UNL1        0.0829
     66  C         79.1280   24.2880   20.6500 C.3     1  UNL1        0.0976
     67  H         78.2910   24.0590   21.2760 H       1  UNL1        0.0659
     68  C         79.1250   23.3990   19.3830 C.3     1  UNL1       -0.0331
     69  H         78.1150   23.1610   19.1170 H       1  UNL1        0.0258
     70  H         79.6640   22.4960   19.5800 H       1  UNL1        0.0258
     71  H         79.5910   23.9260   18.5770 H       1  UNL1        0.0258
     72  O         78.9410   25.6600   20.2750 O.3     1  UNL1       -0.3739
     73  C         78.9530   25.9320   18.8820 C.3     1  UNL1        0.0373
     74  H         78.4630   25.1380   18.3590 H       1  UNL1        0.0524
     75  H         79.9650   26.0100   18.5430 H       1  UNL1        0.0524
     76  H         78.4410   26.8530   18.6930 H       1  UNL1        0.0524
     77  C         83.3720   29.9350   20.2910 C.3     1  UNL1       -0.0567
     78  H         83.9980   29.1520   20.6680 H       1  UNL1        0.0236
     79  H         83.0350   30.5440   21.1040 H       1  UNL1        0.0236
     80  H         83.9280   30.5350   19.6010 H       1  UNL1        0.0236
     81  C         81.1180   30.4970   19.6940 C.3     1  UNL1       -0.0567
     82  H         81.6390   31.4300   19.7490 H       1  UNL1        0.0236
     83  H         80.5290   30.3650   20.5780 H       1  UNL1        0.0236
     84  H         80.4790   30.4950   18.8360 H       1  UNL1        0.0236
     85  N         88.2730   26.6490   16.6200 N.am    1  UNL1       -0.3023
     86  C         88.0590   26.5270   15.2550 C.2     1  UNL1        0.2344
     87  O         87.2180   25.7230   14.8390 O.2     1  UNL1       -0.2737
     88  H         89.0000   27.2170   16.9630 H       1  UNL1        0.1495
     89  C         88.7550   27.5410   14.2640 C.3     1  UNL1        0.1042
     90  H         89.4910   28.0750   14.8280 H       1  UNL1        0.0599
     91  N         89.6920   26.9850   13.2530 N.am    1  UNL1       -0.2901
     92  C         89.9040   25.6390   12.8950 C.2     1  UNL1        0.2533
     93  O         90.6280   25.4080   11.9200 O.2     1  UNL1       -0.2721
     94  C         89.2970   24.4270   13.6800 C.3     1  UNL1        0.1896
     95  F         89.2470   24.7220   15.0210 F       1  UNL1       -0.2319
     96  C         90.2230   23.1920   13.5450 C.3     1  UNL1        0.0057
     97  C         90.1800   22.5670   12.1490 C.3     1  UNL1        0.0189
     98  N         88.8190   22.3570   11.6820 N.am    1  UNL1       -0.2907
     99  C         88.6380   21.4160   10.6710 C.2     1  UNL1        0.2910
    100  O         89.5560   20.8890   10.0490 O.2     1  UNL1       -0.2605
    101  C         87.8790   23.4590   11.8450 C.3     1  UNL1        0.0189
    102  C         87.8970   23.9730   13.2700 C.3     1  UNL1        0.0057
    103  H         89.9170   22.4550   14.2580 H       1  UNL1        0.0316
    104  H         91.2260   23.5210   13.7190 H       1  UNL1        0.0316
    105  H         90.6830   21.6230   12.1780 H       1  UNL1        0.0466
    106  H         90.6590   23.2430   11.4730 H       1  UNL1        0.0466
    107  H         86.8930   23.1180   11.6080 H       1  UNL1        0.0466
    108  H         88.1650   24.2550   11.1900 H       1  UNL1        0.0466
    109  H         87.2250   24.8020   13.3510 H       1  UNL1        0.0316
    110  H         87.5970   23.1770   13.9200 H       1  UNL1        0.0316
    111  C         87.3070   20.9360   10.4380 C.1     1  UNL1       -0.0092
    112  C         86.1560   20.5730   10.3210 C.1     1  UNL1       -0.1051
    113  C         84.7720   20.1250   10.1440 C.3     1  UNL1       -0.0075
    114  C         84.2140   19.8780   11.4940 C.3     1  UNL1       -0.0642
    115  H         84.3510   20.7490   12.1020 H       1  UNL1        0.0225
    116  H         84.7180   19.0480   11.9430 H       1  UNL1        0.0225
    117  H         83.1700   19.6600   11.4140 H       1  UNL1        0.0225
    118  C         84.7600   18.7090    9.5130 C.3     1  UNL1       -0.0642
    119  H         84.0970   18.6990    8.6730 H       1  UNL1        0.0225
    120  H         84.4270   17.9980   10.2400 H       1  UNL1        0.0225
    121  H         85.7480   18.4540    9.1900 H       1  UNL1        0.0225
    122  N         83.8860   21.1140    9.5110 N.4     1  UNL1        0.3867
    123  H         84.4310   21.5240    8.7530 H       1  UNL1       -0.0805
    124  C         83.5120   22.1370   10.4690 C.3     1  UNL1       -0.1016
    125  H         83.9830   21.9360   11.4080 H       1  UNL1        0.0024
    126  H         82.4490   22.1350   10.5950 H       1  UNL1        0.0024
    127  H         83.8260   23.0940   10.1100 H       1  UNL1        0.0024
    128  C         82.6920   20.5480    8.8540 C.3     1  UNL1       -0.1016
    129  H         82.9760   19.6960    8.2730 H       1  UNL1        0.0024
    130  H         82.2520   21.2860    8.2170 H       1  UNL1        0.0024
    131  H         81.9840   20.2520    9.5990 H       1  UNL1        0.0024
    132  C         90.4660   27.9330   12.4510 C.3     1  UNL1        0.0040
    133  H         90.0750   27.9600   11.4540 H       1  UNL1        0.0429
    134  H         91.4900   27.6250   12.4240 H       1  UNL1        0.0429
    135  H         90.3990   28.9080   12.8860 H       1  UNL1        0.0429
    136  C         87.6900   28.5880   13.7620 C.3     1  UNL1       -0.0195
    137  H         88.2780   29.2020   13.1120 H       1  UNL1        0.0318
    138  C         86.5520   27.9490   12.9640 C.3     1  UNL1       -0.0605
    139  H         85.6950   27.8350   13.5940 H       1  UNL1        0.0233
    140  H         86.8620   26.9890   12.6070 H       1  UNL1        0.0233
    141  H         86.3030   28.5750   12.1330 H       1  UNL1        0.0233
    142  C         87.1240   29.5400   14.8120 C.3     1  UNL1       -0.0605
    143  H         87.9290   29.9990   15.3470 H       1  UNL1        0.0233
    144  H         86.5100   28.9910   15.4960 H       1  UNL1        0.0233
    145  H         86.5380   30.2950   14.3320 H       1  UNL1        0.0233
    146  C         80.2300   28.0970   23.5120 C.3     1  UNL1        0.0100
    147  H         80.5890   28.9980   23.9630 H       1  UNL1        0.0461
    148  H         79.7700   27.3950   24.1750 H       1  UNL1        0.0461
    149  C         79.1250   28.4850   22.5440 C.3     1  UNL1       -0.0494
    150  H         78.2540   27.8950   22.7420 H       1  UNL1        0.0245
    151  H         79.4530   28.3100   21.5400 H       1  UNL1        0.0245
    152  H         78.8900   29.5210   22.6670 H       1  UNL1        0.0245
    153 H          80.1958   26.1259   21.7449 H       1  UNL1        0.0556
    154 H          82.1595   26.5546   20.0620 H       1  UNL1        0.0371
@<TRIPOS>BOND
     1     1     2    1
     2     1    58    1
     3     1    31    1
     4     1   153    1
     5     2     3    1
     6     2    25    1
     7     2   154    1
     8     3    33    1
     9     3     4    1
    10     3    32    1
    11     4     5    1
    12     4    81    1
    13     4    77    1
    14     5    35    1
    15     5     6    1
    16     5    34    1
    17     6     7    1
    18     7    24    2
    19     7     8    1
    20     8    36    1
    21     8     9    1
    22     8    23    1
    23     9    37    1
    24     9    10    1
    25    10    11   am
    26    10    21    1
    27    11    20    2
    28    11    12    1
    29    12    85    1
    30    12    38    1
    31    12    13    1
    32    13    39    1
    33    13    40    1
    34    13    14    1
    35    14    41    1
    36    14    15    1
    37    14    19    1
    38    15    42    1
    39    15    43    1
    40    15    16    1
    41    16    29    1
    42    16    17    1
    43    17    18    1
    44    17    45    1
    45    17    44    1
    46    18    19    1
    47    18    46    1
    48    18    47    1
    49    21    22    1
    50    21    49    1
    51    21    48    1
    52    22    23    1
    53    22    51    1
    54    22    50    1
    55    23    52    1
    56    23    53    1
    57    25    30   ar
    58    25    26   ar
    59    26    31    1
    60    26    27   ar
    61    27    28   ar
    62    27    54    1
    63    28    29   ar
    64    28    55    1
    65    29    30   ar
    66    30    56    1
    67    31   146    1
    68    57    66    1
    69    57    62   ar
    70    57    58   ar
    71    58    59   ar
    72    59    60   ar
    73    59    63    1
    74    60    61   ar
    75    60    64    1
    76    61    62   ar
    77    61    65    1
    78    66    68    1
    79    66    72    1
    80    66    67    1
    81    68    71    1
    82    68    69    1
    83    68    70    1
    84    72    73    1
    85    73    74    1
    86    73    75    1
    87    73    76    1
    88    77    80    1
    89    77    78    1
    90    77    79    1
    91    81    84    1
    92    81    82    1
    93    81    83    1
    94    85    86   am
    95    85    88    1
    96    86    89    1
    97    86    87    2
    98    89    91    1
    99    89   136    1
   100    89    90    1
   101    91   132    1
   102    91    92   am
   103    92    93    2
   104    92    94    1
   105    94   102    1
   106    94    96    1
   107    94    95    1
   108    96    97    1
   109    96   104    1
   110    96   103    1
   111    97   106    1
   112    97    98    1
   113    97   105    1
   114    98    99   am
   115    98   101    1
   116    99   100    2
   117    99   111    1
   118   101   108    1
   119   101   107    1
   120   101   102    1
   121   102   109    1
   122   102   110    1
   123   111   112    3
   124   112   113    1
   125   113   122    1
   126   113   118    1
   127   113   114    1
   128   114   117    1
   129   114   116    1
   130   114   115    1
   131   118   119    1
   132   118   121    1
   133   118   120    1
   134   122   123    1
   135   122   128    1
   136   122   124    1
   137   124   127    1
   138   124   126    1
   139   124   125    1
   140   128   130    1
   141   128   129    1
   142   128   131    1
   143   132   133    1
   144   132   134    1
   145   132   135    1
   146   136   138    1
   147   136   137    1
   148   136   142    1
   149   138   141    1
   150   138   140    1
   151   138   139    1
   152   142   145    1
   153   142   143    1
   154   142   144    1
   155   146   149    1
   156   146   147    1
   157   146   148    1
   158   149   151    1
   159   149   152    1
   160   149   150    1
