@<TRIPOS>MOLECULE
UNL
 62 63 0 0 0
SMALL
GASTEIGER

@<TRIPOS>ATOM
      1  C         84.7420   27.8350   17.3830 C.ar    1  UNL1        0.0398
      2  C         85.4110   27.9820   18.6130 C.ar    1  UNL1        0.1330
      3  F         86.7500   28.0870   18.6330 F       1  UNL1       -0.2048
      4  C         84.7620   28.0740   19.8540 C.ar    1  UNL1       -0.0179
      5  C         83.3650   28.1710   19.9510 C.ar    1  UNL1        0.0122
      6  C         82.6540   28.1120   18.6760 C.ar    1  UNL1        0.1439
      7  O         81.2520   28.3640   18.4830 O.3     1  UNL1       -0.4904
      8  C         80.8080   28.4610   19.7730 C.3     1  UNL1        0.0869
      9  C         79.6000   28.4620   20.6120 C.3     1  UNL1       -0.0307
     10  C         80.2330   28.0430   22.0240 C.3     1  UNL1       -0.0776
     11  C         79.2900   26.9270   22.6040 C.3     1  UNL1        0.0035
     12  N         79.9500   25.6290   22.6960 N.am    1  UNL1       -0.2999
     13  C         79.8970   24.5710   21.7990 C.2     1  UNL1        0.2387
     14  O         80.6390   23.5940   21.9060 O.2     1  UNL1       -0.2707
     15  C         81.1470   25.7120   23.5120 C.3     1  UNL1        0.0272
     16  C         82.2080   26.5040   22.7370 C.3     1  UNL1        0.0120
     17  N         81.7420   27.7600   22.1240 N.3     1  UNL1       -0.3104
     18  C         82.8340   28.5170   21.4260 C.3     1  UNL1        0.0249
     19  C         83.3300   27.8330   17.4570 C.ar    1  UNL1        0.0933
     20 CL         82.3620   27.4450   16.0540 Cl      1  UNL1       -0.0790
     21  H         85.3260   28.0700   20.7180 H       1  UNL1        0.0651
     22  H         81.2390   29.3990   20.0550 H       1  UNL1        0.0694
     23  H         80.9300   27.4080   19.9160 H       1  UNL1        0.0694
     24  H         78.8810   27.7460   20.2730 H       1  UNL1        0.0262
     25  H         79.0590   29.3850   20.6200 H       1  UNL1        0.0262
     26  H         80.2530   28.9160   22.6410 H       1  UNL1        0.0194
     27  H         78.4370   26.8330   21.9650 H       1  UNL1        0.0429
     28  H         79.0100   27.2200   23.5940 H       1  UNL1        0.0429
     29  H         81.5120   24.7270   23.7200 H       1  UNL1        0.0477
     30  H         80.9270   26.2000   24.4380 H       1  UNL1        0.0477
     31  H         82.5830   25.8760   21.9560 H       1  UNL1        0.0439
     32  H         82.9470   26.7870   23.4570 H       1  UNL1        0.0439
     33  H         81.4340   28.5560   22.6810 H       1  UNL1        0.1223
     34  H         82.5000   29.5330   21.3830 H       1  UNL1        0.0475
     35  H         83.6820   28.2450   22.0190 H       1  UNL1        0.0475
     36  C         88.0070   25.0740   15.6970 C.ar    1  UNL1        0.0817
     37  S         88.5160   25.9970   14.3670 S.2     1  UNL1       -0.0699
     38  C         86.8380   25.5760   16.2370 C.ar    1  UNL1        0.0880
     39  C         86.4700   26.8840   15.7100 C.ar    1  UNL1        0.0190
     40  C         87.2660   27.1580   14.5830 C.ar    1  UNL1        0.0581
     41  C         87.0560   28.2780   13.7660 C.ar    1  UNL1        0.1377
     42  F         87.8110   28.4920   12.6760 F       1  UNL1       -0.2043
     43  C         86.0810   29.1990   14.0950 C.ar    1  UNL1       -0.0247
     44  C         85.3530   29.0200   15.2610 C.ar    1  UNL1       -0.0505
     45  C         85.4960   27.8770   16.0940 C.ar    1  UNL1       -0.0039
     46  H         85.8990   30.0090   13.4830 H       1  UNL1        0.0647
     47  H         84.6760   29.7490   15.5350 H       1  UNL1        0.0625
     48  N         88.7270   23.9900   16.0720 N.pl3   1  UNL1       -0.3516
     49  H         89.5430   24.1040   16.6100 H       1  UNL1        0.1428
     50  H         88.4340   23.0890   15.8050 H       1  UNL1        0.1428
     51  C         86.1230   24.8490   17.2430 C.1     1  UNL1        0.1022
     52  N         85.5410   24.2710   18.0690 N.1     1  UNL1       -0.1908
     53  C         78.9340   24.6350   20.6650 C.2     1  UNL1       -0.0068
     54  C         79.3850   24.8660   19.4240 C.2     1  UNL1       -0.0938
     55  H         77.9250   24.5020   20.8350 H       1  UNL1        0.0663
     56  H         80.3950   24.9980   19.2580 H       1  UNL1        0.0536
     57  H         78.7210   24.9110   18.6340 H       1  UNL1        0.0536
     58 H          79.9937   28.2491   21.5839 H       1  UNL1        0.0262
     59 H          81.0748   27.4240   22.2544 H       1  UNL1        0.0194
     60 H          80.2743   28.3326   20.9948 H       1  UNL1        0.0194
     61 H          79.3298   27.4987   22.2054 H       1  UNL1        0.0194
     62 H          79.9339   27.6738   22.1887 H       1  UNL1        0.0429
@<TRIPOS>BOND
     1     1    45    1
     2     1    19   ar
     3     1     2   ar
     4     2     3    1
     5     2     4   ar
     6     4     5   ar
     7     4    21    1
     8     5     6   ar
     9     5    18    1
    10     6    19   ar
    11     6     7    1
    12     7     8    1
    13     8    23    1
    14     8    22    1
    15     8     9    1
    16     9    24    1
    17     9    25    1
    18     9    58    1
    19    10    26    1
    20    10    59    1
    21    10    60    1
    22    10    61    1
    23    11    27    1
    24    11    12    1
    25    11    28    1
    26    11    62    1
    27    12    13   am
    28    12    15    1
    29    13    53    1
    30    13    14    2
    31    15    16    1
    32    15    29    1
    33    15    30    1
    34    16    31    1
    35    16    17    1
    36    16    32    1
    37    17    18    1
    38    17    33    1
    39    18    34    1
    40    18    35    1
    41    19    20    1
    42    36    37   ar
    43    36    48    1
    44    36    38   ar
    45    37    40   ar
    46    38    39   ar
    47    38    51    1
    48    39    40   ar
    49    39    45   ar
    50    40    41   ar
    51    41    42    1
    52    41    43   ar
    53    43    46    1
    54    43    44   ar
    55    44    47    1
    56    44    45   ar
    57    48    50    1
    58    48    49    1
    59    51    52    3
    60    53    54    2
    61    53    55    1
    62    54    57    1
    63    54    56    1
