@<TRIPOS>MOLECULE
UNL
 77 81 0 0 0
SMALL
GASTEIGER

@<TRIPOS>ATOM
      1  C         83.6140   27.5330   17.7020 C.ar    1  UNL1        0.0566
      2  C         82.4000   26.8350   17.6400 C.ar    1  UNL1        0.1604
      3  F         82.4540   25.5290   17.3250 F       1  UNL1       -0.2025
      4  C         81.3520   27.1520   18.5040 C.ar    1  UNL1        0.1196
      5  N         80.2260   27.8710   18.2360 N.2     1  UNL1       -0.1619
      6  C         79.4860   28.1920   19.3120 C.1     1  UNL1        0.1916
      7  N         79.6320   27.6150   20.5070 N.2     1  UNL1       -0.1783
      8  C         80.7400   26.9050   20.6670 C.3     1  UNL1        0.1442
      9  N         80.7400   25.8010   21.5120 N.3     1  UNL1       -0.2710
     10  C         81.8800   24.8570   21.5940 C.3     1  UNL1        0.0256
     11  C         81.4660   23.4130   21.2050 C.3     1  UNL1        0.0304
     12  N         80.2390   22.9790   21.8770 N.am    1  UNL1       -0.2953
     13  C         80.2980   21.8780   22.7190 C.2     1  UNL1        0.2390
     14  O         81.3370   21.2680   22.9320 O.2     1  UNL1       -0.2706
     15  C         79.1120   23.8930   21.6340 C.3     1  UNL1        0.0279
     16  C         79.4490   25.3410   22.0640 C.3     1  UNL1        0.0173
     17  C         81.7680   27.1570   19.7830 C.ar    1  UNL1        0.0226
     18  C         82.8240   28.0700   19.9490 C.ar    1  UNL1       -0.0340
     19  C         83.6550   28.3670   18.8500 C.ar    1  UNL1        0.0534
     20 CL         84.5810   29.8240   19.0100 Cl      1  UNL1       -0.0828
     21  H         82.6320   25.1500   20.8910 H       1  UNL1        0.0476
     22  H         82.2590   22.7450   21.4720 H       1  UNL1        0.0480
     23  H         81.2800   23.4020   20.1510 H       1  UNL1        0.0480
     24  H         78.2640   23.5540   22.1900 H       1  UNL1        0.0477
     25  H         78.9040   23.8960   20.5840 H       1  UNL1        0.0477
     26  H         78.6740   25.9920   21.7170 H       1  UNL1        0.0443
     27  H         79.5230   25.3570   23.1320 H       1  UNL1        0.0443
     28  H         82.9890   28.5160   20.8640 H       1  UNL1        0.0637
     29  C         85.8570   28.5450   15.0120 C.ar    1  UNL1        0.1171
     30  C         86.8030   27.5740   14.8270 C.ar    1  UNL1       -0.0186
     31  C         86.7660   26.4440   15.6440 C.ar    1  UNL1       -0.0335
     32  C         85.7360   26.3000   16.6280 C.ar    1  UNL1        0.0839
     33  C         84.7870   27.3480   16.7520 C.ar    1  UNL1        0.0892
     34  N         84.9030   28.4290   15.9380 N.ar    1  UNL1       -0.2317
     35  H         87.5270   27.6750   14.1000 H       1  UNL1        0.0654
     36  C         87.8610   25.4240   15.4180 C.3     1  UNL1       -0.0390
     37  H         87.5170   24.6770   14.7330 H       1  UNL1        0.0278
     38  H         88.1170   24.9650   16.3490 H       1  UNL1        0.0278
     39  H         88.7230   25.9120   15.0120 H       1  UNL1        0.0278
     40  C         85.7590   25.0780   17.5170 C.3     1  UNL1        0.4196
     41  F         85.0620   25.1960   18.6850 F       1  UNL1       -0.1658
     42  F         85.1980   23.9940   16.9080 F       1  UNL1       -0.1658
     43  F         87.0050   24.7320   17.9380 F       1  UNL1       -0.1658
     44  N         85.8190   29.6780   14.2110 N.pl3   1  UNL1       -0.3431
     45  H         85.6700   29.5910   13.2420 H       1  UNL1        0.1437
     46  H         85.9390   30.5690   14.6110 H       1  UNL1        0.1437
     47  C         79.0320   21.4340   23.3740 C.2     1  UNL1       -0.0067
     48  C         78.7600   20.1300   23.5100 C.2     1  UNL1       -0.0938
     49  H         78.3620   22.1370   23.7240 H       1  UNL1        0.0663
     50  H         79.4270   19.4240   23.1600 H       1  UNL1        0.0536
     51  H         77.8820   19.8300   23.9630 H       1  UNL1        0.0536
     52  C         82.4490   24.9130   23.0120 C.3     1  UNL1       -0.0479
     53  H         82.5570   23.9190   23.3920 H       1  UNL1        0.0245
     54  H         81.7840   25.4670   23.6420 H       1  UNL1        0.0245
     55  H         83.4050   25.3940   22.9940 H       1  UNL1        0.0245
     56  O         78.7570   29.3500   19.3740 O.2     1  UNL1       -0.4337
     57  C         78.9410   30.1880   20.4990 C.3     1  UNL1        0.0909
     58  H         79.5880   29.7010   21.1970 H       1  UNL1        0.0691
     59  H         77.9860   30.3770   20.9440 H       1  UNL1        0.0691
     60  C         79.5720   31.5500   20.0800 C.3     1  UNL1       -0.0425
     61  N         79.8620   32.5720   21.1040 N.4     1  UNL1        0.3819
     62  C         81.1570   32.2410   21.6980 C.3     1  UNL1       -0.0905
     63  C         81.9720   31.7220   20.5240 C.3     1  UNL1       -0.0694
     64  C         80.9560   31.3790   19.4410 C.3     1  UNL1       -0.0638
     65  H         78.7750   31.8860   19.4500 H       1  UNL1        0.0127
     66  H         79.8920   33.4780   20.6360 H       1  UNL1       -0.0817
     67  H         81.0500   31.4890   22.4500 H       1  UNL1        0.0059
     68  H         81.6150   33.0780   22.1810 H       1  UNL1        0.0059
     69  H         82.5230   30.8510   20.8100 H       1  UNL1        0.0247
     70  H         82.6850   32.4450   20.1870 H       1  UNL1        0.0247
     71  H         81.0640   32.0430   18.6080 H       1  UNL1        0.0250
     72  H         81.0960   30.3830   19.0760 H       1  UNL1        0.0250
     73  C         78.8280   32.7840   22.0970 C.3     1  UNL1       -0.1027
     74  H         78.7260   33.8330   22.2870 H       1  UNL1        0.0024
     75  H         79.0970   32.2820   23.0040 H       1  UNL1        0.0024
     76  H         77.9000   32.3950   21.7360 H       1  UNL1        0.0024
     77 H          81.2386   27.3231   21.5164 H       1  UNL1        0.0776
@<TRIPOS>BOND
     1     1    33    1
     2     1     2   ar
     3     1    19   ar
     4     2     3    1
     5     2     4   ar
     6     4     5    1
     7     4    17   ar
     8     5     6    2
     9     6    56    1
    10     6     7    2
    11     7     8    1
    12     8    17    1
    13     8     9    1
    14     8    77    1
    15     9    10    1
    16     9    16    1
    17    10    21    1
    18    10    11    1
    19    10    52    1
    20    11    23    1
    21    11    22    1
    22    11    12    1
    23    12    15    1
    24    12    13   am
    25    13    14    2
    26    13    47    1
    27    15    25    1
    28    15    16    1
    29    15    24    1
    30    16    26    1
    31    16    27    1
    32    17    18   ar
    33    18    19   ar
    34    18    28    1
    35    19    20    1
    36    29    44    1
    37    29    30   ar
    38    29    34   ar
    39    30    35    1
    40    30    31   ar
    41    31    36    1
    42    31    32   ar
    43    32    33   ar
    44    32    40    1
    45    33    34   ar
    46    36    37    1
    47    36    39    1
    48    36    38    1
    49    40    42    1
    50    40    43    1
    51    40    41    1
    52    44    45    1
    53    44    46    1
    54    47    48    2
    55    47    49    1
    56    48    50    1
    57    48    51    1
    58    52    55    1
    59    52    53    1
    60    52    54    1
    61    56    57    1
    62    57    60    1
    63    57    59    1
    64    57    58    1
    65    60    64    1
    66    60    65    1
    67    60    61    1
    68    61    66    1
    69    61    62    1
    70    61    73    1
    71    62    63    1
    72    62    68    1
    73    62    67    1
    74    63    64    1
    75    63    70    1
    76    63    69    1
    77    64    71    1
    78    64    72    1
    79    73    76    1
    80    73    74    1
    81    73    75    1
