@<TRIPOS>MOLECULE
UNL
 47 50 0 0 0
SMALL
GASTEIGER

@<TRIPOS>ATOM
      1  C         85.4190   27.3890   16.5710 C.ar    1  UNL1        0.0000
      2  C         86.4350   27.2680   17.5390 C.ar    1  UNL1        0.0000
      3  F         86.2800   27.9380   18.6980 F       1  UNL1        0.0000
      4  C         87.5620   26.4460   17.4030 C.ar    1  UNL1        0.0000
      5  N         88.4490   26.3270   18.4030 N.ar    1  UNL1        0.0000
      6  C         89.4680   25.4810   18.2150 C.ar    1  UNL1        0.0000
      7  N         89.7070   24.7670   17.1110 N.ar    1  UNL1        0.0000
      8  C         88.8340   24.9020   16.1000 C.ar    1  UNL1        0.0000
      9  N         89.0000   24.1090   14.9700 N.pl3   1  UNL1        0.0000
     10  C         89.3030   24.7670   13.6860 C.3     1  UNL1        0.0000
     11  C         88.7830   23.8450   12.5630 C.3     1  UNL1        0.0000
     12  N         89.2880   22.4630   12.6750 N.am    1  UNL1        0.0000
     13  C         89.3450   21.7330   11.4970 C.2     1  UNL1        0.0000
     14  O         89.1450   22.2490   10.3970 O.2     1  UNL1        0.0000
     15  C         89.2450   21.8850   14.0350 C.3     1  UNL1        0.0000
     16  C         89.7440   22.8580   15.1230 C.3     1  UNL1        0.0000
     17  C         87.6970   25.7280   16.2120 C.ar    1  UNL1        0.0000
     18  C         86.6720   25.8000   15.2430 C.ar    1  UNL1        0.0000
     19  C         85.5540   26.6110   15.4160 C.ar    1  UNL1        0.0000
     20 CL         84.3470   26.5310   14.1760 Cl      1  UNL1        0.0000
     21  H         90.1330   25.3700   18.9970 H       1  UNL1        0.0000
     22  H         90.3590   24.9060   13.5860 H       1  UNL1        0.0000
     23  H         88.8340   25.7280   13.6330 H       1  UNL1        0.0000
     24  H         89.0950   24.2460   11.6210 H       1  UNL1        0.0000
     25  H         87.7170   23.8060   12.6470 H       1  UNL1        0.0000
     26  H         89.8600   21.0090   14.0530 H       1  UNL1        0.0000
     27  H         88.2220   21.6600   14.2540 H       1  UNL1        0.0000
     28  H         89.5670   22.4440   16.0940 H       1  UNL1        0.0000
     29  H         90.7960   23.0300   15.0220 H       1  UNL1        0.0000
     30  H         86.7550   25.2370   14.3820 H       1  UNL1        0.0000
     31  F         82.8610   26.3850   17.2250 F       1  UNL1        0.0000
     32  C         83.0170   27.7190   17.1810 C.ar    1  UNL1        0.0000
     33  C         84.2530   28.2680   16.7960 C.ar    1  UNL1        0.0000
     34  C         84.3230   29.6690   16.7170 C.ar    1  UNL1        0.0000
     35  C         83.2430   30.4760   17.0830 C.ar    1  UNL1        0.0000
     36  C         82.0480   29.8980   17.5060 C.ar    1  UNL1        0.0000
     37  C         81.9300   28.5130   17.5430 C.ar    1  UNL1        0.0000
     38  H         83.3320   31.5030   17.0390 H       1  UNL1        0.0000
     39  H         81.2560   30.4960   17.7920 H       1  UNL1        0.0000
     40  H         81.0430   28.0760   17.8360 H       1  UNL1        0.0000
     41  O         85.4470   30.3280   16.2980 O.3     1  UNL1        0.0000
     42  H         86.2380   29.8520   16.1390 H       1  UNL1        0.0000
     43  C         89.6860   20.2820   11.5820 C.2     1  UNL1        0.0000
     44  C         88.7100   19.3720   11.6910 C.2     1  UNL1        0.0000
     45  H         90.6720   19.9810   11.5570 H       1  UNL1        0.0000
     46  H         87.7240   19.6740   11.7160 H       1  UNL1        0.0000
     47  H         88.9440   18.3690   11.7490 H       1  UNL1        0.0000
@<TRIPOS>BOND
     1     1    19   ar
     2     1    33    1
     3     1     2   ar
     4     2     4   ar
     5     2     3    1
     6     4    17   ar
     7     4     5   ar
     8     5     6   ar
     9     6     7   ar
    10     6    21    1
    11     7     8   ar
    12     8     9    1
    13     8    17   ar
    14     9    10    1
    15     9    16    1
    16    10    11    1
    17    10    22    1
    18    10    23    1
    19    11    24    1
    20    11    25    1
    21    11    12    1
    22    12    13   am
    23    12    15    1
    24    13    14    2
    25    13    43    1
    26    15    26    1
    27    15    27    1
    28    15    16    1
    29    16    29    1
    30    16    28    1
    31    17    18   ar
    32    18    30    1
    33    18    19   ar
    34    19    20    1
    35    31    32    1
    36    32    33   ar
    37    32    37   ar
    38    33    34   ar
    39    34    41    1
    40    34    35   ar
    41    35    38    1
    42    35    36   ar
    43    36    37   ar
    44    36    39    1
    45    37    40    1
    46    41    42    1
    47    43    45    1
    48    43    44    2
    49    44    46    1
    50    44    47    1
