@<TRIPOS>MOLECULE
UNL
 130 136 0 0 0
SMALL
GASTEIGER

@<TRIPOS>ATOM
      1  C         86.4460   26.5370   15.4050 C.ar    1  UNL1        0.0000
      2  C         85.4800   27.3870   15.9890 C.ar    1  UNL1        0.0000
      3  C         85.6000   27.0430   17.3730 C.ar    1  UNL1        0.0000
      4  C         85.8590   25.6740   17.4000 C.ar    1  UNL1        0.0000
      5  N         86.3580   25.3600   16.1530 N.ar    1  UNL1        0.0000
      6  C         85.7220   24.8900   18.5550 C.ar    1  UNL1        0.0000
      7  C         85.5760   25.5520   19.7710 C.ar    1  UNL1        0.0000
      8  C         85.5650   26.9440   19.8260 C.ar    1  UNL1        0.0000
      9  C         85.5180   27.6780   18.6220 C.ar    1  UNL1        0.0000
     10  C         84.6440   28.3840   15.2070 C.3     1  UNL1        0.0000
     11  C         83.6500   29.4730   15.7330 C.3     1  UNL1        0.0000
     12  C         82.1520   29.0040   15.8180 C.3     1  UNL1        0.0000
     13  O         81.8360   28.3450   17.0500 O.3     1  UNL1        0.0000
     14  C         80.5600   27.9140   17.2560 C.2     1  UNL1        0.0000
     15  C         79.4890   28.9510   17.7120 C.3     1  UNL1        0.0000
     16  N         79.1150   28.7700   19.1460 N.3     1  UNL1        0.0000
     17  N         80.0410   29.3800   20.0870 N.am    1  UNL1        0.0000
     18  C         80.3140   30.8040   19.8530 C.3     1  UNL1        0.0000
     19  C         80.6610   31.0790   18.3850 C.3     1  UNL1        0.0000
     20  C         79.6340   30.4460   17.4530 C.3     1  UNL1        0.0000
     21  C         81.0230   28.5180   20.5790 C.2     1  UNL1        0.0000
     22  C         81.2850   28.5070   22.1090 C.3     1  UNL1        0.0000
     23  C         82.4180   29.4310   22.6340 C.3     1  UNL1        0.0000
     24  C         83.8280   28.9010   22.4810 C.ar    1  UNL1        0.0000
     25  C         84.2040   28.3330   21.2710 C.ar    1  UNL1        0.0000
     26  C         85.4040   27.6450   21.0970 C.ar    1  UNL1        0.0000
     27  C         86.3250   27.6370   22.1430 C.ar    1  UNL1        0.0000
     28  C         86.0200   28.3000   23.3370 C.ar    1  UNL1        0.0000
     29  C         84.7700   28.9140   23.5120 C.ar    1  UNL1        0.0000
     30  O         81.4930   27.6320   19.8600 O.2     1  UNL1        0.0000
     31  O         80.2900   26.7100   17.2350 O.2     1  UNL1        0.0000
     32  H         85.7270   23.8590   18.5060 H       1  UNL1        0.0000
     33  H         85.4730   25.0050   20.6400 H       1  UNL1        0.0000
     34  H         85.4200   28.7050   18.6600 H       1  UNL1        0.0000
     35  H         84.0510   27.7790   14.5540 H       1  UNL1        0.0000
     36  H         85.4350   29.0390   14.9090 H       1  UNL1        0.0000
     37  H         81.9620   28.3270   15.0110 H       1  UNL1        0.0000
     38  H         81.5410   29.8800   15.7600 H       1  UNL1        0.0000
     39  H         78.7350   28.6760   17.0040 H       1  UNL1        0.0000
     40  H         79.0750   27.7690   19.3420 H       1  UNL1        0.0000
     41  H         81.1380   31.1050   20.4660 H       1  UNL1        0.0000
     42  H         79.4330   31.3580   20.0970 H       1  UNL1        0.0000
     43  H         81.6270   30.6700   18.1700 H       1  UNL1        0.0000
     44  H         80.6580   32.1370   18.2260 H       1  UNL1        0.0000
     45  H         78.6870   30.9190   17.6070 H       1  UNL1        0.0000
     46  H         79.9680   30.5810   16.4460 H       1  UNL1        0.0000
     47  H         80.4470   28.9340   22.6200 H       1  UNL1        0.0000
     48  H         82.2430   29.6030   23.6760 H       1  UNL1        0.0000
     49  H         82.3740   30.3140   22.0310 H       1  UNL1        0.0000
     50  H         83.5670   28.4230   20.4650 H       1  UNL1        0.0000
     51  H         87.2260   27.1460   22.0370 H       1  UNL1        0.0000
     52  H         86.7190   28.3380   24.0950 H       1  UNL1        0.0000
     53  H         84.5460   29.3780   24.4060 H       1  UNL1        0.0000
     54  C         88.2870   28.0670   14.3720 C.ar    1  UNL1        0.0000
     55  C         87.6800   26.8310   14.6250 C.ar    1  UNL1        0.0000
     56  C         88.2140   25.7220   13.9220 C.ar    1  UNL1        0.0000
     57  C         89.1700   25.8690   12.9260 C.ar    1  UNL1        0.0000
     58  C         89.6080   27.1410   12.6570 C.ar    1  UNL1        0.0000
     59  N         89.2110   28.2180   13.3630 N.ar    1  UNL1        0.0000
     60  H         87.8810   24.7730   14.1580 H       1  UNL1        0.0000
     61  H         89.5380   25.0540   12.4090 H       1  UNL1        0.0000
     62  H         90.2700   27.2790   11.8770 H       1  UNL1        0.0000
     63  C         88.1890   29.3210   15.2230 C.3     1  UNL1        0.0000
     64  H         88.6650   30.0690   14.6240 H       1  UNL1        0.0000
     65  C         88.8510   29.0130   16.5760 C.3     1  UNL1        0.0000
     66  H         88.4990   29.7070   17.3100 H       1  UNL1        0.0000
     67  H         89.9120   29.1010   16.4820 H       1  UNL1        0.0000
     68  H         88.6000   28.0170   16.8760 H       1  UNL1        0.0000
     69  O         86.9050   29.8750   15.4960 O.3     1  UNL1        0.0000
     70  C         86.9630   31.1840   16.0370 C.3     1  UNL1        0.0000
     71  H         86.3980   31.2200   16.9450 H       1  UNL1        0.0000
     72  H         86.5520   31.8780   15.3340 H       1  UNL1        0.0000
     73  H         87.9810   31.4420   16.2400 H       1  UNL1        0.0000
     74  C         83.6430   30.6000   14.6480 C.3     1  UNL1        0.0000
     75  H         83.1080   30.2610   13.7860 H       1  UNL1        0.0000
     76  H         84.6490   30.8370   14.3720 H       1  UNL1        0.0000
     77  H         83.1650   31.4730   15.0430 H       1  UNL1        0.0000
     78  C         84.0810   30.1340   17.0380 C.3     1  UNL1        0.0000
     79  H         83.2140   30.4320   17.5910 H       1  UNL1        0.0000
     80  H         84.6780   30.9950   16.8200 H       1  UNL1        0.0000
     81  H         84.6530   29.4400   17.6170 H       1  UNL1        0.0000
     82  N         81.5120   27.0840   22.4210 N.am    1  UNL1        0.0000
     83  C         80.6280   26.2610   23.0540 C.2     1  UNL1        0.0000
     84  O         79.4960   26.6470   23.3860 O.2     1  UNL1        0.0000
     85  H         82.3750   26.6940   22.1490 H       1  UNL1        0.0000
     86  C         81.0730   24.7880   23.2560 C.3     1  UNL1        0.0000
     87  H         81.0210   24.5020   24.2860 H       1  UNL1        0.0000
     88  N         80.0940   23.8900   22.5760 N.am    1  UNL1        0.0000
     89  C         79.7490   24.1260   21.2430 C.2     1  UNL1        0.0000
     90  O         80.3350   25.0200   20.6230 O.2     1  UNL1        0.0000
     91  C         78.7860   23.1840   20.4660 C.3     1  UNL1        0.0000
     92  C         79.0100   22.8720   18.9810 C.3     1  UNL1        0.0000
     93  C         78.7570   21.3920   18.7710 C.3     1  UNL1        0.0000
     94  N         78.9410   20.8050   20.0830 N.am    1  UNL1        0.0000
     95  C         78.7650   21.7910   21.1340 C.3     1  UNL1        0.0000
     96  C         79.1280   19.4500   20.1980 C.2     1  UNL1        0.0000
     97  O         79.2730   18.7090   19.2230 O.2     1  UNL1        0.0000
     98  H         77.8950   23.7760   20.5090 H       1  UNL1        0.0000
     99  H         80.0170   23.1100   18.7080 H       1  UNL1        0.0000
    100  H         78.3480   23.4520   18.3740 H       1  UNL1        0.0000
    101  H         79.4580   20.9840   18.0730 H       1  UNL1        0.0000
    102  H         77.7850   21.1990   18.3700 H       1  UNL1        0.0000
    103  H         77.8290   21.6360   21.6290 H       1  UNL1        0.0000
    104  H         79.5440   21.7090   21.8630 H       1  UNL1        0.0000
    105  C         79.1450   18.8970   21.5760 C.2     1  UNL1        0.0000
    106  C         80.1570   19.1620   22.4120 C.2     1  UNL1        0.0000
    107  H         78.3650   18.3000   21.8950 H       1  UNL1        0.0000
    108  H         80.9400   19.7580   22.1030 H       1  UNL1        0.0000
    109  H         80.1530   18.7700   23.3670 H       1  UNL1        0.0000
    110  C         79.1680   23.2540   23.4980 C.3     1  UNL1        0.0000
    111  H         79.7130   22.6440   24.1880 H       1  UNL1        0.0000
    112  H         78.4810   22.6430   22.9490 H       1  UNL1        0.0000
    113  H         78.6270   24.0040   24.0350 H       1  UNL1        0.0000
    114  C         82.5990   24.5620   23.0390 C.3     1  UNL1        0.0000
    115  H         83.0830   25.0480   23.8590 H       1  UNL1        0.0000
    116  C         83.1530   25.1740   21.7470 C.3     1  UNL1        0.0000
    117  H         84.2180   25.2420   21.8130 H       1  UNL1        0.0000
    118  H         82.7400   26.1510   21.6090 H       1  UNL1        0.0000
    119  H         82.8870   24.5550   20.9160 H       1  UNL1        0.0000
    120  C         82.8750   23.0460   22.9780 C.3     1  UNL1        0.0000
    121  H         83.9190   22.8800   22.8120 H       1  UNL1        0.0000
    122  H         82.3130   22.6130   22.1760 H       1  UNL1        0.0000
    123  H         82.5840   22.5930   23.9020 H       1  UNL1        0.0000
    124  C         87.0690   24.1130   15.8910 C.3     1  UNL1        0.0000
    125  H         87.0680   23.9370   14.8350 H       1  UNL1        0.0000
    126  H         86.5600   23.3410   16.4290 H       1  UNL1        0.0000
    127  C         88.5020   24.1250   16.3750 C.3     1  UNL1        0.0000
    128  H         88.5180   24.1560   17.4430 H       1  UNL1        0.0000
    129  H         89.0010   24.9880   15.9850 H       1  UNL1        0.0000
    130  H         89.0000   23.2420   16.0350 H       1  UNL1        0.0000
@<TRIPOS>BOND
     1     1    55    1
     2     1     2   ar
     3     1     5   ar
     4     2    10    1
     5     2     3   ar
     6     3     4   ar
     7     3     9   ar
     8     4     5   ar
     9     4     6   ar
    10     5   124    1
    11     6    32    1
    12     6     7   ar
    13     7     8   ar
    14     7    33    1
    15     8     9   ar
    16     8    26    1
    17     9    34    1
    18    10    35    1
    19    10    36    1
    20    10    11    1
    21    11    74    1
    22    11    12    1
    23    11    78    1
    24    12    37    1
    25    12    38    1
    26    12    13    1
    27    13    14    1
    28    14    31    2
    29    14    15    1
    30    15    39    1
    31    15    20    1
    32    15    16    1
    33    16    40    1
    34    16    17    1
    35    17    18    1
    36    17    21   am
    37    18    19    1
    38    18    42    1
    39    18    41    1
    40    19    20    1
    41    19    43    1
    42    19    44    1
    43    20    46    1
    44    20    45    1
    45    21    30    2
    46    21    22    1
    47    22    82    1
    48    22    47    1
    49    22    23    1
    50    23    49    1
    51    23    24    1
    52    23    48    1
    53    24    25   ar
    54    24    29   ar
    55    25    50    1
    56    25    26   ar
    57    26    27   ar
    58    27    51    1
    59    27    28   ar
    60    28    29   ar
    61    28    52    1
    62    29    53    1
    63    54    59   ar
    64    54    55   ar
    65    54    63    1
    66    55    56   ar
    67    56    57   ar
    68    56    60    1
    69    57    61    1
    70    57    58   ar
    71    58    62    1
    72    58    59   ar
    73    63    64    1
    74    63    69    1
    75    63    65    1
    76    65    67    1
    77    65    68    1
    78    65    66    1
    79    69    70    1
    80    70    72    1
    81    70    73    1
    82    70    71    1
    83    74    75    1
    84    74    76    1
    85    74    77    1
    86    78    80    1
    87    78    79    1
    88    78    81    1
    89    82    85    1
    90    82    83   am
    91    83    86    1
    92    83    84    2
    93    86    88    1
    94    86   114    1
    95    86    87    1
    96    88    89   am
    97    88   110    1
    98    89    91    1
    99    89    90    2
   100    91    92    1
   101    91    98    1
   102    91    95    1
   103    92   100    1
   104    92    99    1
   105    92    93    1
   106    93   101    1
   107    93   102    1
   108    93    94    1
   109    94    96   am
   110    94    95    1
   111    95   103    1
   112    95   104    1
   113    96    97    2
   114    96   105    1
   115   105   107    1
   116   105   106    2
   117   106   108    1
   118   106   109    1
   119   110   112    1
   120   110   113    1
   121   110   111    1
   122   114   116    1
   123   114   120    1
   124   114   115    1
   125   116   119    1
   126   116   118    1
   127   116   117    1
   128   120   122    1
   129   120   121    1
   130   120   123    1
   131   124   125    1
   132   124   127    1
   133   124   126    1
   134   127   129    1
   135   127   130    1
   136   127   128    1
