@<TRIPOS>MOLECULE
UNL
 130 136 0 0 0
SMALL
GASTEIGER

@<TRIPOS>ATOM
      1  C         81.6760   23.1540   22.5530 C.ar    1  UNL1        0.0000
      2  C         81.3640   24.4900   22.1310 C.ar    1  UNL1        0.0000
      3  C         82.1930   24.5890   20.9580 C.ar    1  UNL1        0.0000
      4  C         83.3790   23.9490   21.2940 C.ar    1  UNL1        0.0000
      5  N         83.0480   23.0180   22.2730 N.ar    1  UNL1        0.0000
      6  C         84.5730   24.0780   20.5670 C.ar    1  UNL1        0.0000
      7  C         84.4760   24.5910   19.2840 C.ar    1  UNL1        0.0000
      8  C         83.2530   25.0240   18.7830 C.ar    1  UNL1        0.0000
      9  C         82.1260   25.0930   19.6480 C.ar    1  UNL1        0.0000
     10  C         80.8090   25.6480   23.0700 C.3     1  UNL1        0.0000
     11  C         80.0520   26.9820   22.6380 C.3     1  UNL1        0.0000
     12  C         80.8330   28.3350   22.9310 C.3     1  UNL1        0.0000
     13  O         82.0390   28.5440   22.1910 O.3     1  UNL1        0.0000
     14  C         82.7330   29.7090   22.1410 C.2     1  UNL1        0.0000
     15  C         82.0970   31.1240   21.9390 C.3     1  UNL1        0.0000
     16  N         82.6650   31.7310   20.6770 N.3     1  UNL1        0.0000
     17  N         82.0570   31.1690   19.4880 N.am    1  UNL1        0.0000
     18  C         80.5950   31.3640   19.4430 C.3     1  UNL1        0.0000
     19  C         79.8750   30.9560   20.7290 C.3     1  UNL1        0.0000
     20  C         80.6100   31.4670   21.9610 C.3     1  UNL1        0.0000
     21  C         82.5290   29.9010   19.1270 C.2     1  UNL1        0.0000
     22  C         83.7280   29.9020   18.1040 C.3     1  UNL1        0.0000
     23  C         83.0640   29.4450   16.7510 C.3     1  UNL1        0.0000
     24  C         83.0920   27.9520   16.5040 C.ar    1  UNL1        0.0000
     25  C         83.0950   27.0790   17.5860 C.ar    1  UNL1        0.0000
     26  C         83.2030   25.6990   17.4890 C.ar    1  UNL1        0.0000
     27  C         83.3280   25.1440   16.2260 C.ar    1  UNL1        0.0000
     28  C         83.2870   25.9930   15.1120 C.ar    1  UNL1        0.0000
     29  F         83.4050   25.4630   13.8860 F       1  UNL1        0.0000
     30  C         83.1510   27.3830   15.2410 C.ar    1  UNL1        0.0000
     31  O         81.8900   28.8900   19.4770 O.2     1  UNL1        0.0000
     32  O         83.9700   29.6540   22.0990 O.2     1  UNL1        0.0000
     33  H         85.4810   23.8020   20.9700 H       1  UNL1        0.0000
     34  H         85.3210   24.6530   18.6940 H       1  UNL1        0.0000
     35  H         81.2500   25.5200   19.3100 H       1  UNL1        0.0000
     36  H         81.6630   25.9870   23.6170 H       1  UNL1        0.0000
     37  H         79.9810   25.1240   23.5020 H       1  UNL1        0.0000
     38  H         81.0840   28.3470   23.9710 H       1  UNL1        0.0000
     39  H         80.1720   29.1180   22.6250 H       1  UNL1        0.0000
     40  H         82.3620   31.5090   22.9020 H       1  UNL1        0.0000
     41  H         83.6680   31.5560   20.6490 H       1  UNL1        0.0000
     42  H         80.2020   30.7800   18.6370 H       1  UNL1        0.0000
     43  H         80.4260   32.4130   19.3120 H       1  UNL1        0.0000
     44  H         79.8210   29.8890   20.7750 H       1  UNL1        0.0000
     45  H         78.8960   31.3860   20.7180 H       1  UNL1        0.0000
     46  H         80.5040   32.5310   22.0060 H       1  UNL1        0.0000
     47  H         80.1780   30.9910   22.8170 H       1  UNL1        0.0000
     48  H         84.1440   30.8880   18.1320 H       1  UNL1        0.0000
     49  H         83.5800   29.9250   15.9460 H       1  UNL1        0.0000
     50  H         82.0320   29.7200   16.8140 H       1  UNL1        0.0000
     51  H         83.0100   27.4880   18.5290 H       1  UNL1        0.0000
     52  H         83.4500   24.1270   16.1070 H       1  UNL1        0.0000
     53  H         83.0960   27.9790   14.4000 H       1  UNL1        0.0000
     54  C         79.5860   21.7930   21.8380 C.ar    1  UNL1        0.0000
     55  C         80.8070   21.9330   22.5110 C.ar    1  UNL1        0.0000
     56  C         81.1890   20.8380   23.3230 C.ar    1  UNL1        0.0000
     57  C         80.3640   19.7340   23.5120 C.ar    1  UNL1        0.0000
     58  C         79.1470   19.7240   22.8660 C.ar    1  UNL1        0.0000
     59  N         78.7570   20.7090   22.0380 N.ar    1  UNL1        0.0000
     60  H         82.1090   20.8600   23.7880 H       1  UNL1        0.0000
     61  H         80.6520   18.9480   24.1160 H       1  UNL1        0.0000
     62  H         78.5090   18.9280   23.0220 H       1  UNL1        0.0000
     63  C         79.0820   22.6920   20.7210 C.3     1  UNL1        0.0000
     64  H         78.2520   23.2150   21.1470 H       1  UNL1        0.0000
     65  C         78.7570   21.7810   19.5290 C.3     1  UNL1        0.0000
     66  H         79.6330   21.2350   19.2490 H       1  UNL1        0.0000
     67  H         78.4310   22.3780   18.7030 H       1  UNL1        0.0000
     68  H         77.9820   21.0970   19.8030 H       1  UNL1        0.0000
     69  O         79.9280   23.7350   20.2550 O.3     1  UNL1        0.0000
     70  C         79.5320   24.2810   19.0080 C.3     1  UNL1        0.0000
     71  H         80.0110   23.7450   18.2160 H       1  UNL1        0.0000
     72  H         79.8150   25.3120   18.9640 H       1  UNL1        0.0000
     73  H         78.4710   24.1980   18.9040 H       1  UNL1        0.0000
     74  C         78.7570   27.1960   23.5090 C.3     1  UNL1        0.0000
     75  H         77.9170   27.3520   22.8660 H       1  UNL1        0.0000
     76  H         78.8870   28.0490   24.1400 H       1  UNL1        0.0000
     77  H         78.5870   26.3290   24.1130 H       1  UNL1        0.0000
     78  C         79.5500   26.9040   21.2000 C.3     1  UNL1        0.0000
     79  H         80.1060   26.1600   20.6690 H       1  UNL1        0.0000
     80  H         79.6810   27.8530   20.7250 H       1  UNL1        0.0000
     81  H         78.5120   26.6430   21.1980 H       1  UNL1        0.0000
     82  N         85.0220   29.1910   18.3840 N.am    1  UNL1        0.0000
     83  C         85.7720   28.6580   17.3450 C.2     1  UNL1        0.0000
     84  O         85.3970   28.7520   16.1710 O.2     1  UNL1        0.0000
     85  H         85.3400   29.1020   19.3120 H       1  UNL1        0.0000
     86  C         87.1760   28.0180   17.6220 C.3     1  UNL1        0.0000
     87  H         87.1940   27.2590   18.3760 H       1  UNL1        0.0000
     88  N         87.5640   27.2530   16.3900 N.am    1  UNL1        0.0000
     89  C         87.7830   25.8770   16.4240 C.2     1  UNL1        0.0000
     90  O         87.5560   25.2750   17.4830 O.2     1  UNL1        0.0000
     91  C         88.1630   25.0510   15.1420 C.3     1  UNL1        0.0000
     92  C         88.7080   25.7110   13.8680 C.3     1  UNL1        0.0000
     93  C         89.4560   24.5880   13.1440 C.3     1  UNL1        0.0000
     94  N         90.0680   23.8440   14.2130 N.am    1  UNL1        0.0000
     95  C         89.3070   24.0390   15.4620 C.3     1  UNL1        0.0000
     96  C         91.2450   23.1620   14.0050 C.2     1  UNL1        0.0000
     97  O         91.7950   23.1090   12.9090 O.2     1  UNL1        0.0000
     98  H         87.1800   24.6930   14.9200 H       1  UNL1        0.0000
     99  H         89.3740   26.5130   14.1130 H       1  UNL1        0.0000
    100  H         87.9320   26.1370   13.2670 H       1  UNL1        0.0000
    101  H         90.1970   24.9860   12.4830 H       1  UNL1        0.0000
    102  H         88.8140   23.9870   12.5340 H       1  UNL1        0.0000
    103  H         88.8940   23.1090   15.7910 H       1  UNL1        0.0000
    104  H         89.9390   24.4100   16.2420 H       1  UNL1        0.0000
    105  C         91.8540   22.4850   15.1860 C.2     1  UNL1        0.0000
    106  C         92.2550   21.2060   15.1320 C.2     1  UNL1        0.0000
    107  H         91.9680   23.0130   16.0650 H       1  UNL1        0.0000
    108  H         92.1460   20.6670   14.2600 H       1  UNL1        0.0000
    109  H         92.6740   20.7620   15.9650 H       1  UNL1        0.0000
    110  C         88.1300   28.1060   15.3480 C.3     1  UNL1        0.0000
    111  H         87.3680   28.7470   14.9580 H       1  UNL1        0.0000
    112  H         88.5210   27.4950   14.5610 H       1  UNL1        0.0000
    113  H         88.9180   28.7000   15.7630 H       1  UNL1        0.0000
    114  C         88.1560   28.9140   18.4520 C.3     1  UNL1        0.0000
    115  H         87.5390   29.7390   18.7450 H       1  UNL1        0.0000
    116  C         89.3740   29.4740   17.7060 C.3     1  UNL1        0.0000
    117  H         89.0540   30.2240   17.0140 H       1  UNL1        0.0000
    118  H         89.8610   28.6840   17.1760 H       1  UNL1        0.0000
    119  H         90.0560   29.9050   18.4100 H       1  UNL1        0.0000
    120  C         88.7530   28.0850   19.6320 C.3     1  UNL1        0.0000
    121  H         89.7610   27.8120   19.4000 H       1  UNL1        0.0000
    122  H         88.1670   27.2030   19.7790 H       1  UNL1        0.0000
    123  H         88.7400   28.6760   20.5240 H       1  UNL1        0.0000
    124  C         83.9810   21.9050   22.4380 C.3     1  UNL1        0.0000
    125  H         84.4270   22.0460   23.4000 H       1  UNL1        0.0000
    126  H         84.5540   21.9940   21.5380 H       1  UNL1        0.0000
    127  C         83.5990   20.4400   22.3800 C.3     1  UNL1        0.0000
    128  H         84.4110   19.8450   22.7420 H       1  UNL1        0.0000
    129  H         83.3800   20.1680   21.3680 H       1  UNL1        0.0000
    130  H         82.7350   20.2720   22.9880 H       1  UNL1        0.0000
@<TRIPOS>BOND
     1     1     2   ar
     2     1     5   ar
     3     1    55    1
     4     2     3   ar
     5     2    10    1
     6     3     9   ar
     7     3     4   ar
     8     4     6   ar
     9     4     5   ar
    10     5   124    1
    11     6     7   ar
    12     6    33    1
    13     7    34    1
    14     7     8   ar
    15     8    26    1
    16     8     9   ar
    17     9    35    1
    18    10    11    1
    19    10    37    1
    20    10    36    1
    21    11    78    1
    22    11    12    1
    23    11    74    1
    24    12    13    1
    25    12    39    1
    26    12    38    1
    27    13    14    1
    28    14    15    1
    29    14    32    2
    30    15    16    1
    31    15    20    1
    32    15    40    1
    33    16    17    1
    34    16    41    1
    35    17    21   am
    36    17    18    1
    37    18    42    1
    38    18    43    1
    39    18    19    1
    40    19    45    1
    41    19    44    1
    42    19    20    1
    43    20    46    1
    44    20    47    1
    45    21    22    1
    46    21    31    2
    47    22    23    1
    48    22    48    1
    49    22    82    1
    50    23    49    1
    51    23    24    1
    52    23    50    1
    53    24    30   ar
    54    24    25   ar
    55    25    26   ar
    56    25    51    1
    57    26    27   ar
    58    27    28   ar
    59    27    52    1
    60    28    29    1
    61    28    30   ar
    62    30    53    1
    63    54    63    1
    64    54    59   ar
    65    54    55   ar
    66    55    56   ar
    67    56    57   ar
    68    56    60    1
    69    57    58   ar
    70    57    61    1
    71    58    59   ar
    72    58    62    1
    73    63    65    1
    74    63    69    1
    75    63    64    1
    76    65    67    1
    77    65    66    1
    78    65    68    1
    79    69    70    1
    80    70    71    1
    81    70    73    1
    82    70    72    1
    83    74    75    1
    84    74    77    1
    85    74    76    1
    86    78    79    1
    87    78    80    1
    88    78    81    1
    89    82    83   am
    90    82    85    1
    91    83    84    2
    92    83    86    1
    93    86    88    1
    94    86    87    1
    95    86   114    1
    96    88   110    1
    97    88    89   am
    98    89    91    1
    99    89    90    2
   100    91    92    1
   101    91    98    1
   102    91    95    1
   103    92    93    1
   104    92   100    1
   105    92    99    1
   106    93   101    1
   107    93   102    1
   108    93    94    1
   109    94    96   am
   110    94    95    1
   111    95   103    1
   112    95   104    1
   113    96    97    2
   114    96   105    1
   115   105   106    2
   116   105   107    1
   117   106   108    1
   118   106   109    1
   119   110   112    1
   120   110   111    1
   121   110   113    1
   122   114   116    1
   123   114   115    1
   124   114   120    1
   125   116   117    1
   126   116   118    1
   127   116   119    1
   128   120   121    1
   129   120   122    1
   130   120   123    1
   131   124   126    1
   132   124   127    1
   133   124   125    1
   134   127   129    1
   135   127   128    1
   136   127   130    1
