@<TRIPOS>MOLECULE
UNL
 133 139 0 0 0
SMALL
GASTEIGER

@<TRIPOS>ATOM
      1  C         89.7810   23.5590   13.2030 C.ar    1  UNL1        0.0000
      2  C         89.5200   24.9390   13.5930 C.ar    1  UNL1        0.0000
      3  C         89.1660   24.7600   15.0010 C.ar    1  UNL1        0.0000
      4  C         88.4560   23.5550   15.0650 C.ar    1  UNL1        0.0000
      5  N         88.7330   22.8650   13.9010 N.ar    1  UNL1        0.0000
      6  C         87.7110   23.1560   16.1880 C.ar    1  UNL1        0.0000
      7  C         87.9250   23.8120   17.3860 C.ar    1  UNL1        0.0000
      8  C         88.7490   24.9320   17.4410 C.ar    1  UNL1        0.0000
      9  C         89.2950   25.4530   16.2330 C.ar    1  UNL1        0.0000
     10  C         89.2420   26.1920   12.5440 C.3     1  UNL1        0.0000
     11  C         89.1380   27.8060   12.8040 C.3     1  UNL1        0.0000
     12  C         87.7070   28.4680   12.5510 C.3     1  UNL1        0.0000
     13  O         86.6530   27.8400   13.2770 O.3     1  UNL1        0.0000
     14  C         85.5890   28.3190   13.9130 C.2     1  UNL1        0.0000
     15  C         85.1290   29.7940   14.0880 C.3     1  UNL1        0.0000
     16  N         84.5920   29.9410   15.4960 N.3     1  UNL1        0.0000
     17  N         85.6510   30.0650   16.4690 N.am    1  UNL1        0.0000
     18  C         86.6290   31.1230   16.2270 C.3     1  UNL1        0.0000
     19  C         87.0850   31.2270   14.7800 C.3     1  UNL1        0.0000
     20  C         85.9280   31.0580   13.8100 C.3     1  UNL1        0.0000
     21  C         86.1340   28.8560   17.0070 C.2     1  UNL1        0.0000
     22  C         85.3640   28.4720   18.3240 C.3     1  UNL1        0.0000
     23  C         86.3580   28.6060   19.5340 C.3     1  UNL1        0.0000
     24  C         87.4340   27.5670   19.6850 C.ar    1  UNL1        0.0000
     25  C         87.6120   26.5980   18.7090 C.ar    1  UNL1        0.0000
     26  C         88.6990   25.7410   18.6560 C.ar    1  UNL1        0.0000
     27  C         89.5760   25.7160   19.7430 C.ar    1  UNL1        0.0000
     28  C         89.3810   26.6170   20.8120 C.ar    1  UNL1        0.0000
     29  C         88.3350   27.5580   20.7540 C.ar    1  UNL1        0.0000
     30  O         87.0810   28.2860   16.4650 O.2     1  UNL1        0.0000
     31  O         84.8160   27.4750   14.4130 O.2     1  UNL1        0.0000
     32  H         87.0210   22.3910   16.1220 H       1  UNL1        0.0000
     33  H         87.4710   23.4700   18.2470 H       1  UNL1        0.0000
     34  H         89.7980   26.3550   16.2530 H       1  UNL1        0.0000
     35  H         88.3040   25.9440   12.0910 H       1  UNL1        0.0000
     36  H         90.2070   26.1940   12.0820 H       1  UNL1        0.0000
     37  H         87.4850   28.4040   11.5060 H       1  UNL1        0.0000
     38  H         87.7640   29.4810   12.8920 H       1  UNL1        0.0000
     39  H         84.4950   29.8210   13.2260 H       1  UNL1        0.0000
     40  H         84.0310   29.1200   15.7220 H       1  UNL1        0.0000
     41  H         87.4870   30.9330   16.8370 H       1  UNL1        0.0000
     42  H         86.1490   32.0480   16.4670 H       1  UNL1        0.0000
     43  H         87.8100   30.4620   14.5900 H       1  UNL1        0.0000
     44  H         87.5040   32.2000   14.6330 H       1  UNL1        0.0000
     45  H         85.2780   31.9040   13.8980 H       1  UNL1        0.0000
     46  H         86.3340   30.9820   12.8230 H       1  UNL1        0.0000
     47  H         84.5630   29.1750   18.4210 H       1  UNL1        0.0000
     48  H         85.7730   28.5910   20.4300 H       1  UNL1        0.0000
     49  H         86.8900   29.5150   19.3420 H       1  UNL1        0.0000
     50  H         86.8890   26.5100   17.9780 H       1  UNL1        0.0000
     51  H         90.3600   25.0440   19.7650 H       1  UNL1        0.0000
     52  H         88.2320   28.2500   21.5120 H       1  UNL1        0.0000
     53  C         91.9400   22.2310   14.0970 C.ar    1  UNL1        0.0000
     54  C         91.1140   22.7730   13.1000 C.ar    1  UNL1        0.0000
     55  C         91.6910   22.7060   11.8000 C.ar    1  UNL1        0.0000
     56  C         93.0090   22.3130   11.5440 C.ar    1  UNL1        0.0000
     57  C         93.7570   21.8920   12.6020 C.ar    1  UNL1        0.0000
     58  N         93.2500   21.8280   13.8390 N.ar    1  UNL1        0.0000
     59  H         91.0990   22.9640   10.9960 H       1  UNL1        0.0000
     60  H         93.3990   22.3400   10.5890 H       1  UNL1        0.0000
     61  H         94.7380   21.6160   12.4450 H       1  UNL1        0.0000
     62  C         91.6360   21.8760   15.5380 C.3     1  UNL1        0.0000
     63  H         90.6320   22.2070   15.7040 H       1  UNL1        0.0000
     64  C         92.6360   22.6160   16.4510 C.3     1  UNL1        0.0000
     65  H         92.3910   22.4290   17.4760 H       1  UNL1        0.0000
     66  H         92.5850   23.6670   16.2580 H       1  UNL1        0.0000
     67  H         93.6280   22.2660   16.2520 H       1  UNL1        0.0000
     68  O         91.5320   20.4950   15.8670 O.3     1  UNL1        0.0000
     69  C         92.5690   20.1010   16.7670 C.3     1  UNL1        0.0000
     70  H         92.1490   19.5270   17.5660 H       1  UNL1        0.0000
     71  H         93.0460   20.9720   17.1650 H       1  UNL1        0.0000
     72  H         93.2900   19.5080   16.2420 H       1  UNL1        0.0000
     73  C         90.2820   26.6010   22.0230 C.3     1  UNL1        0.0000
     74  F         89.7360   27.1740   23.1320 F       1  UNL1        0.0000
     75  H         91.1810   27.1290   21.7780 H       1  UNL1        0.0000
     76  H         90.4610   25.5730   22.2610 H       1  UNL1        0.0000
     77  N         84.5680   27.2220   18.3180 N.am    1  UNL1        0.0000
     78  C         83.2160   27.2690   18.6080 C.2     1  UNL1        0.0000
     79  O         82.6650   28.3470   18.8760 O.2     1  UNL1        0.0000
     80  H         84.9990   26.3620   18.1090 H       1  UNL1        0.0000
     81  C         82.3310   25.9910   18.4650 C.3     1  UNL1        0.0000
     82  H         82.8580   25.2650   17.8800 H       1  UNL1        0.0000
     83  N         82.1310   25.4280   19.8280 N.am    1  UNL1        0.0000
     84  C         81.1680   24.4560   20.0600 C.2     1  UNL1        0.0000
     85  O         80.4250   24.0710   19.1570 O.2     1  UNL1        0.0000
     86  C         81.0400   23.8840   21.4750 C.3     1  UNL1        0.0000
     87  C         79.5760   23.7270   21.9010 C.3     1  UNL1        0.0000
     88  C         79.6150   22.6010   22.9260 C.3     1  UNL1        0.0000
     89  N         80.6850   21.7360   22.4620 N.am    1  UNL1        0.0000
     90  C         81.5790   22.4510   21.5620 C.3     1  UNL1        0.0000
     91  C         80.7170   20.3960   22.7910 C.2     1  UNL1        0.0000
     92  O         79.8790   19.8670   23.4940 O.2     1  UNL1        0.0000
     93  H         81.5820   24.5740   22.0890 H       1  UNL1        0.0000
     94  H         78.9640   23.4610   21.0650 H       1  UNL1        0.0000
     95  H         79.1610   24.6310   22.2940 H       1  UNL1        0.0000
     96  H         78.6840   22.0740   22.9460 H       1  UNL1        0.0000
     97  H         79.7780   22.9570   23.9210 H       1  UNL1        0.0000
     98  H         82.5750   22.4530   21.9530 H       1  UNL1        0.0000
     99  H         81.6150   21.9880   20.5980 H       1  UNL1        0.0000
    100  C         81.8620   19.6180   22.2340 C.2     1  UNL1        0.0000
    101  C         82.7680   19.0310   23.0280 C.2     1  UNL1        0.0000
    102  H         81.9580   19.5300   21.2100 H       1  UNL1        0.0000
    103  H         82.6850   19.1110   24.0530 H       1  UNL1        0.0000
    104  H         83.5490   18.5000   22.6130 H       1  UNL1        0.0000
    105  C         82.9190   26.0450   20.8900 C.3     1  UNL1        0.0000
    106  H         82.2620   26.4680   21.6220 H       1  UNL1        0.0000
    107  H         83.5350   26.8170   20.4760 H       1  UNL1        0.0000
    108  H         83.5380   25.3040   21.3520 H       1  UNL1        0.0000
    109  C         81.1010   26.0790   17.5220 C.3     1  UNL1        0.0000
    110  H         80.9570   25.0890   17.1410 H       1  UNL1        0.0000
    111  C         79.8700   26.5800   18.3000 C.3     1  UNL1        0.0000
    112  H         79.8530   26.1270   19.2690 H       1  UNL1        0.0000
    113  H         78.9790   26.3160   17.7670 H       1  UNL1        0.0000
    114  H         79.9220   27.6430   18.4040 H       1  UNL1        0.0000
    115  C         81.3120   27.0380   16.3370 C.3     1  UNL1        0.0000
    116  H         82.3280   26.9770   16.0050 H       1  UNL1        0.0000
    117  H         81.0980   28.0400   16.6470 H       1  UNL1        0.0000
    118  H         80.6580   26.7640   15.5360 H       1  UNL1        0.0000
    119  C         89.6440   28.1760   14.1900 C.3     1  UNL1        0.0000
    120  H         89.4640   29.2150   14.3710 H       1  UNL1        0.0000
    121  H         90.6940   27.9790   14.2510 H       1  UNL1        0.0000
    122  H         89.1290   27.5920   14.9250 H       1  UNL1        0.0000
    123  C         90.0170   28.6560   11.8040 C.3     1  UNL1        0.0000
    124  H         89.6420   28.5350   10.8090 H       1  UNL1        0.0000
    125  H         91.0320   28.3180   11.8470 H       1  UNL1        0.0000
    126  H         89.9730   29.6880   12.0790 H       1  UNL1        0.0000
    127  C         88.3300   21.4560   13.7210 C.3     1  UNL1        0.0000
    128  H         87.2970   21.3950   13.9940 H       1  UNL1        0.0000
    129  H         89.0340   20.9220   14.3240 H       1  UNL1        0.0000
    130  C         88.4670   20.7770   12.3330 C.3     1  UNL1        0.0000
    131  H         88.6050   19.7230   12.4640 H       1  UNL1        0.0000
    132  H         89.3110   21.1850   11.8180 H       1  UNL1        0.0000
    133  H         87.5810   20.9520   11.7600 H       1  UNL1        0.0000
@<TRIPOS>BOND
     1     1    54    1
     2     1     2   ar
     3     1     5   ar
     4     2    10    1
     5     2     3   ar
     6     3     4   ar
     7     3     9   ar
     8     4     5   ar
     9     4     6   ar
    10     5   127    1
    11     6    32    1
    12     6     7   ar
    13     7     8   ar
    14     7    33    1
    15     8     9   ar
    16     8    26    1
    17     9    34    1
    18    10    36    1
    19    10    35    1
    20    10    11    1
    21    11   123    1
    22    11    12    1
    23    11   119    1
    24    12    37    1
    25    12    38    1
    26    12    13    1
    27    13    14    1
    28    14    15    1
    29    14    31    2
    30    15    39    1
    31    15    20    1
    32    15    16    1
    33    16    40    1
    34    16    17    1
    35    17    18    1
    36    17    21   am
    37    18    19    1
    38    18    42    1
    39    18    41    1
    40    19    20    1
    41    19    43    1
    42    19    44    1
    43    20    46    1
    44    20    45    1
    45    21    30    2
    46    21    22    1
    47    22    77    1
    48    22    47    1
    49    22    23    1
    50    23    49    1
    51    23    24    1
    52    23    48    1
    53    24    25   ar
    54    24    29   ar
    55    25    50    1
    56    25    26   ar
    57    26    27   ar
    58    27    51    1
    59    27    28   ar
    60    28    29   ar
    61    28    73    1
    62    29    52    1
    63    53    54   ar
    64    53    58   ar
    65    53    62    1
    66    54    55   ar
    67    55    59    1
    68    55    56   ar
    69    56    60    1
    70    56    57   ar
    71    57    61    1
    72    57    58   ar
    73    62    63    1
    74    62    68    1
    75    62    64    1
    76    64    67    1
    77    64    66    1
    78    64    65    1
    79    68    69    1
    80    69    72    1
    81    69    71    1
    82    69    70    1
    83    73    75    1
    84    73    76    1
    85    73    74    1
    86    77    80    1
    87    77    78   am
    88    78    81    1
    89    78    79    2
    90    81   109    1
    91    81    82    1
    92    81    83    1
    93    83    84   am
    94    83   105    1
    95    84    85    2
    96    84    86    1
    97    86    90    1
    98    86    87    1
    99    86    93    1
   100    87    94    1
   101    87    95    1
   102    87    88    1
   103    88    89    1
   104    88    96    1
   105    88    97    1
   106    89    90    1
   107    89    91   am
   108    90    99    1
   109    90    98    1
   110    91   100    1
   111    91    92    2
   112   100   102    1
   113   100   101    2
   114   101   104    1
   115   101   103    1
   116   105   107    1
   117   105   108    1
   118   105   106    1
   119   109   115    1
   120   109   110    1
   121   109   111    1
   122   111   113    1
   123   111   114    1
   124   111   112    1
   125   115   118    1
   126   115   116    1
   127   115   117    1
   128   119   121    1
   129   119   120    1
   130   119   122    1
   131   123   124    1
   132   123   125    1
   133   123   126    1
   134   127   130    1
   135   127   128    1
   136   127   129    1
   137   130   133    1
   138   130   132    1
   139   130   131    1
