@<TRIPOS>MOLECULE
UNL
 133 139 0 0 0
SMALL
GASTEIGER

@<TRIPOS>ATOM
      1  C         85.9570   27.1760   14.4410 C.ar    1  UNL1        0.0000
      2  C         85.5740   28.2040   15.4110 C.ar    1  UNL1        0.0000
      3  C         84.6800   29.4710   15.0550 C.3     1  UNL1        0.0000
      4  C         84.3560   30.7940   15.9110 C.3     1  UNL1        0.0000
      5  C         82.8520   30.9410   16.4340 C.3     1  UNL1        0.0000
      6  O         82.5130   30.3490   17.6980 O.3     1  UNL1        0.0000
      7  C         81.1590   30.3250   17.9670 C.2     1  UNL1        0.0000
      8  C         80.6940   31.2430   19.1240 C.3     1  UNL1        0.0000
      9  N         80.8620   30.6750   20.4930 N.3     1  UNL1        0.0000
     10  N         82.1680   30.9020   21.0730 N.am    1  UNL1        0.0000
     11  C         82.4320   30.3370   22.3340 C.2     1  UNL1        0.0000
     12  C         82.3770   28.7980   22.5680 C.3     1  UNL1        0.0000
     13  C         83.7280   28.3270   23.2860 C.3     1  UNL1        0.0000
     14  C         85.0450   28.0440   22.5640 C.ar    1  UNL1        0.0000
     15  C         85.1050   27.7920   21.2050 C.ar    1  UNL1        0.0000
     16  C         86.2870   27.3980   20.5320 C.ar    1  UNL1        0.0000
     17  C         87.4540   27.2610   21.2780 C.ar    1  UNL1        0.0000
     18  C         87.4550   27.5260   22.6690 C.ar    1  UNL1        0.0000
     19  C         86.2500   27.9210   23.2850 C.ar    1  UNL1        0.0000
     20  O         82.8300   31.0530   23.2690 O.2     1  UNL1        0.0000
     21  C         82.6590   32.2790   20.9540 C.3     1  UNL1        0.0000
     22  C         82.6000   32.8160   19.5370 C.3     1  UNL1        0.0000
     23  C         81.1850   32.6840   19.0030 C.3     1  UNL1        0.0000
     24  O         80.3580   29.6680   17.3190 O.2     1  UNL1        0.0000
     25  C         85.8510   27.5670   16.6930 C.ar    1  UNL1        0.0000
     26  C         85.5570   26.2160   16.4780 C.ar    1  UNL1        0.0000
     27  C         85.3710   25.3230   17.5430 C.ar    1  UNL1        0.0000
     28  C         85.6740   25.7240   18.8400 C.ar    1  UNL1        0.0000
     29  C         86.1300   27.0090   19.1100 C.ar    1  UNL1        0.0000
     30  C         86.1900   27.9320   18.0350 C.ar    1  UNL1        0.0000
     31  N         85.4940   26.0230   15.1100 N.ar    1  UNL1        0.0000
     32  H         83.7160   29.0570   14.8440 H       1  UNL1        0.0000
     33  H         85.3550   29.9220   14.3580 H       1  UNL1        0.0000
     34  H         82.2150   30.5010   15.6960 H       1  UNL1        0.0000
     35  H         82.7260   31.9920   16.5910 H       1  UNL1        0.0000
     36  H         79.6330   31.2870   18.9940 H       1  UNL1        0.0000
     37  H         80.7050   29.6680   20.4440 H       1  UNL1        0.0000
     38  H         81.4520   28.8040   23.1060 H       1  UNL1        0.0000
     39  H         83.4800   27.4190   23.7960 H       1  UNL1        0.0000
     40  H         83.9850   29.2160   23.8230 H       1  UNL1        0.0000
     41  H         84.2400   27.8960   20.6520 H       1  UNL1        0.0000
     42  H         88.3260   26.9640   20.8140 H       1  UNL1        0.0000
     43  H         86.2510   28.1260   24.2960 H       1  UNL1        0.0000
     44  H         83.6760   32.3080   21.2850 H       1  UNL1        0.0000
     45  H         82.0230   32.8960   21.5540 H       1  UNL1        0.0000
     46  H         83.2690   32.2600   18.9170 H       1  UNL1        0.0000
     47  H         82.8850   33.8480   19.5370 H       1  UNL1        0.0000
     48  H         80.5370   33.3240   19.5630 H       1  UNL1        0.0000
     49  H         81.1820   32.9620   17.9710 H       1  UNL1        0.0000
     50  H         85.0100   24.3730   17.3660 H       1  UNL1        0.0000
     51  H         85.5570   25.0540   19.6160 H       1  UNL1        0.0000
     52  H         86.4910   28.9010   18.2270 H       1  UNL1        0.0000
     53  C         88.3470   26.1910   13.4490 C.ar    1  UNL1        0.0000
     54  C         87.2300   27.1100   13.5370 C.ar    1  UNL1        0.0000
     55  C         87.3940   28.2600   12.7170 C.ar    1  UNL1        0.0000
     56  C         88.5380   28.5200   11.9570 C.ar    1  UNL1        0.0000
     57  C         89.5590   27.6090   11.9830 C.ar    1  UNL1        0.0000
     58  N         89.4620   26.4750   12.6880 N.ar    1  UNL1        0.0000
     59  H         86.6210   28.9440   12.6800 H       1  UNL1        0.0000
     60  H         88.6110   29.3800   11.3900 H       1  UNL1        0.0000
     61  H         90.4210   27.8000   11.4490 H       1  UNL1        0.0000
     62  C         88.6240   24.8640   14.1850 C.3     1  UNL1        0.0000
     63  H         87.7600   24.3150   13.8760 H       1  UNL1        0.0000
     64  C         88.6070   24.9390   15.7400 C.3     1  UNL1        0.0000
     65  H         88.2510   24.0130   16.1380 H       1  UNL1        0.0000
     66  H         87.9610   25.7330   16.0510 H       1  UNL1        0.0000
     67  H         89.5970   25.1250   16.0990 H       1  UNL1        0.0000
     68  O         89.7600   24.1110   13.7450 O.3     1  UNL1        0.0000
     69  C         89.5160   22.7270   13.5680 C.3     1  UNL1        0.0000
     70  H         88.8530   22.3800   14.3340 H       1  UNL1        0.0000
     71  H         90.4410   22.1910   13.6280 H       1  UNL1        0.0000
     72  H         89.0700   22.5620   12.6090 H       1  UNL1        0.0000
     73  C         85.3460   31.0760   17.0320 C.3     1  UNL1        0.0000
     74  H         85.4840   32.1330   17.1290 H       1  UNL1        0.0000
     75  H         86.2840   30.6140   16.8050 H       1  UNL1        0.0000
     76  H         84.9670   30.6800   17.9510 H       1  UNL1        0.0000
     77  C         84.4700   32.0390   14.9490 C.3     1  UNL1        0.0000
     78  H         83.7450   32.7730   15.2280 H       1  UNL1        0.0000
     79  H         84.2910   31.7270   13.9410 H       1  UNL1        0.0000
     80  H         85.4510   32.4590   15.0240 H       1  UNL1        0.0000
     81  C         88.6980   27.3240   23.5120 C.3     1  UNL1        0.0000
     82  F         89.7340   28.1150   23.1270 F       1  UNL1        0.0000
     83  F         89.1720   26.0490   23.5010 F       1  UNL1        0.0000
     84  H         88.3620   27.5810   24.4950 H       1  UNL1        0.0000
     85  N         81.6550   27.7670   21.7880 N.am    1  UNL1        0.0000
     86  C         80.7410   26.8720   22.3020 C.2     1  UNL1        0.0000
     87  O         80.6320   26.7210   23.5120 O.2     1  UNL1        0.0000
     88  H         81.8430   27.7170   20.8230 H       1  UNL1        0.0000
     89  C         79.8190   26.1380   21.2890 C.3     1  UNL1        0.0000
     90  H         80.4070   25.7580   20.4790 H       1  UNL1        0.0000
     91  N         79.2810   24.8220   21.7570 N.am    1  UNL1        0.0000
     92  C         79.2690   23.5920   21.0820 C.2     1  UNL1        0.0000
     93  O         78.7580   22.5960   21.6210 O.2     1  UNL1        0.0000
     94  C         79.9320   23.4020   19.7150 C.3     1  UNL1        0.0000
     95  C         79.0640   24.0450   18.6100 C.3     1  UNL1        0.0000
     96  C         80.0370   24.7790   17.7020 C.3     1  UNL1        0.0000
     97  N         81.0920   25.1890   18.6010 N.am    1  UNL1        0.0000
     98  C         81.9310   26.2790   18.5280 C.2     1  UNL1        0.0000
     99  O         82.8680   26.4400   19.3070 O.2     1  UNL1        0.0000
    100  C         81.2520   24.1990   19.6590 C.3     1  UNL1        0.0000
    101  H         80.0700   22.3510   19.5740 H       1  UNL1        0.0000
    102  H         78.3620   24.7310   19.0370 H       1  UNL1        0.0000
    103  H         78.4970   23.3130   18.0740 H       1  UNL1        0.0000
    104  H         79.5710   25.6270   17.2460 H       1  UNL1        0.0000
    105  H         80.3910   24.1730   16.8950 H       1  UNL1        0.0000
    106  H         82.0690   23.5460   19.4350 H       1  UNL1        0.0000
    107  H         81.4610   24.6680   20.5990 H       1  UNL1        0.0000
    108  C         81.6550   27.2890   17.4660 C.2     1  UNL1        0.0000
    109  C         82.2190   27.1840   16.2520 C.2     1  UNL1        0.0000
    110  H         81.0210   28.0770   17.6670 H       1  UNL1        0.0000
    111  H         82.8540   26.3980   16.0440 H       1  UNL1        0.0000
    112  H         82.0190   27.8910   15.5270 H       1  UNL1        0.0000
    113  C         78.7570   24.7250   23.1160 C.3     1  UNL1        0.0000
    114  H         79.3730   24.0640   23.6890 H       1  UNL1        0.0000
    115  H         77.7580   24.3440   23.0860 H       1  UNL1        0.0000
    116  H         78.7570   25.6940   23.5690 H       1  UNL1        0.0000
    117  C         78.8480   27.1690   20.5950 C.3     1  UNL1        0.0000
    118  H         77.9700   26.5620   20.6620 H       1  UNL1        0.0000
    119  C         78.7570   28.4900   21.3480 C.3     1  UNL1        0.0000
    120  H         78.3060   28.3260   22.3040 H       1  UNL1        0.0000
    121  H         78.1620   29.1800   20.7860 H       1  UNL1        0.0000
    122  H         79.7400   28.8930   21.4800 H       1  UNL1        0.0000
    123  C         78.9100   27.4710   19.0960 C.3     1  UNL1        0.0000
    124  H         79.1760   28.4970   18.9500 H       1  UNL1        0.0000
    125  H         77.9530   27.2830   18.6550 H       1  UNL1        0.0000
    126  H         79.6440   26.8440   18.6360 H       1  UNL1        0.0000
    127  C         85.1290   24.7880   14.4470 C.3     1  UNL1        0.0000
    128  H         84.7990   24.1200   15.2140 H       1  UNL1        0.0000
    129  H         86.0180   24.5500   13.9030 H       1  UNL1        0.0000
    130  C         84.0660   24.7500   13.3610 C.3     1  UNL1        0.0000
    131  H         83.8030   25.7500   13.0830 H       1  UNL1        0.0000
    132  H         83.1980   24.2420   13.7290 H       1  UNL1        0.0000
    133  H         84.4470   24.2310   12.5070 H       1  UNL1        0.0000
@<TRIPOS>BOND
     1     1    54    1
     2     1    31   ar
     3     1     2   ar
     4     2     3    1
     5     2    25   ar
     6     3    33    1
     7     3    32    1
     8     3     4    1
     9     4    77    1
    10     4     5    1
    11     4    73    1
    12     5    34    1
    13     5    35    1
    14     5     6    1
    15     6     7    1
    16     7    24    2
    17     7     8    1
    18     8    36    1
    19     8    23    1
    20     8     9    1
    21     9    37    1
    22     9    10    1
    23    10    21    1
    24    10    11   am
    25    11    12    1
    26    11    20    2
    27    12    85    1
    28    12    38    1
    29    12    13    1
    30    13    14    1
    31    13    39    1
    32    13    40    1
    33    14    15   ar
    34    14    19   ar
    35    15    16   ar
    36    15    41    1
    37    16    29    1
    38    16    17   ar
    39    17    42    1
    40    17    18   ar
    41    18    19   ar
    42    18    81    1
    43    19    43    1
    44    21    22    1
    45    21    44    1
    46    21    45    1
    47    22    46    1
    48    22    23    1
    49    22    47    1
    50    23    49    1
    51    23    48    1
    52    25    26   ar
    53    25    30   ar
    54    26    31   ar
    55    26    27   ar
    56    27    50    1
    57    27    28   ar
    58    28    29   ar
    59    28    51    1
    60    29    30   ar
    61    30    52    1
    62    31   127    1
    63    53    58   ar
    64    53    54   ar
    65    53    62    1
    66    54    55   ar
    67    55    56   ar
    68    55    59    1
    69    56    60    1
    70    56    57   ar
    71    57    61    1
    72    57    58   ar
    73    62    68    1
    74    62    63    1
    75    62    64    1
    76    64    66    1
    77    64    67    1
    78    64    65    1
    79    68    69    1
    80    69    72    1
    81    69    71    1
    82    69    70    1
    83    73    75    1
    84    73    74    1
    85    73    76    1
    86    77    79    1
    87    77    80    1
    88    77    78    1
    89    81    82    1
    90    81    83    1
    91    81    84    1
    92    85    88    1
    93    85    86   am
    94    86    89    1
    95    86    87    2
    96    89    90    1
    97    89   117    1
    98    89    91    1
    99    91    92   am
   100    91   113    1
   101    92    94    1
   102    92    93    2
   103    94    95    1
   104    94   101    1
   105    94   100    1
   106    95    96    1
   107    95   103    1
   108    95   102    1
   109    96   105    1
   110    96   104    1
   111    96    97    1
   112    97    98   am
   113    97   100    1
   114    98   108    1
   115    98    99    2
   116   100   106    1
   117   100   107    1
   118   108   109    2
   119   108   110    1
   120   109   112    1
   121   109   111    1
   122   113   115    1
   123   113   116    1
   124   113   114    1
   125   117   123    1
   126   117   118    1
   127   117   119    1
   128   119   121    1
   129   119   122    1
   130   119   120    1
   131   123   126    1
   132   123   125    1
   133   123   124    1
   134   127   130    1
   135   127   129    1
   136   127   128    1
   137   130   133    1
   138   130   131    1
   139   130   132    1
