@<TRIPOS>MOLECULE
UNL
 32 33 0 0 0
SMALL
GASTEIGER

@<TRIPOS>ATOM
      1  C         85.8880   27.2760   15.2530 C.ar    1  UNL1        0.0000
      2  C         84.6980   26.7290   15.7340 C.ar    1  UNL1        0.0000
      3  C         83.8060   27.5090   16.4730 C.ar    1  UNL1        0.0000
      4  C         84.1140   28.8400   16.7510 C.ar    1  UNL1        0.0000
      5  C         85.2850   29.4130   16.2560 C.ar    1  UNL1        0.0000
      6  C         86.1760   28.6240   15.5180 C.ar    1  UNL1        0.0000
      7  H         84.4760   25.7400   15.5440 H       1  UNL1        0.0000
      8  H         82.9200   27.1010   16.8110 H       1  UNL1        0.0000
      9  H         85.4930   30.4080   16.4310 H       1  UNL1        0.0000
     10  H         87.0530   29.0370   15.1650 H       1  UNL1        0.0000
     11  O         87.9880   25.4320   16.2200 O.2     1  UNL1        0.0000
     12  C         87.8390   25.7240   15.0340 C.2     1  UNL1        0.0000
     13  N         86.8410   26.5350   14.5270 N.am    1  UNL1        0.0000
     14  H         86.7890   26.6010   13.5470 H       1  UNL1        0.0000
     15  C         88.8030   25.1450   14.0090 C.3     1  UNL1        0.0000
     16 CL         89.4740   23.5680   14.4800 Cl      1  UNL1        0.0000
     17  H         89.6120   25.8330   13.8780 H       1  UNL1        0.0000
     18  H         88.2490   24.9950   13.1060 H       1  UNL1        0.0000
     19  S         82.9760   29.8060   17.7070 S.O2    1  UNL1        0.0000
     20  O         83.2160   29.5210   19.1040 O.2     1  UNL1        0.0000
     21  O         82.9860   31.1600   17.1970 O.2     1  UNL1        0.0000
     22  N         81.4870   29.0430   17.3310 N.pl3   1  UNL1        0.0000
     23  H         81.2860   28.6550   16.4490 H       1  UNL1        0.0000
     24  C         80.5650   29.0260   18.4280 C.ar    1  UNL1        0.0000
     25  C         80.0650   27.9010   19.0480 C.ar    1  UNL1        0.0000
     26  C         79.1840   28.2450   20.1220 C.ar    1  UNL1        0.0000
     27  C         79.0760   29.6090   20.2900 C.ar    1  UNL1        0.0000
     28  S         80.0600   30.4670   19.1830 S.2     1  UNL1        0.0000
     29  H         78.6870   27.5520   20.7030 H       1  UNL1        0.0000
     30  H         78.4750   30.0580   20.9990 H       1  UNL1        0.0000
     31  C         80.4070   26.5540   18.7090 C.1     1  UNL1        0.0000
     32  N         80.6750   25.4670   18.3980 N.1     1  UNL1        0.0000
@<TRIPOS>BOND
     1     1    13    1
     2     1     6   ar
     3     1     2   ar
     4     2     7    1
     5     2     3   ar
     6     3     4   ar
     7     3     8    1
     8     4     5   ar
     9     4    19    1
    10     5     6   ar
    11     5     9    1
    12     6    10    1
    13    11    12    2
    14    12    15    1
    15    12    13   am
    16    13    14    1
    17    15    18    1
    18    15    17    1
    19    15    16    1
    20    19    21    2
    21    19    22    1
    22    19    20    2
    23    22    23    1
    24    22    24    1
    25    24    25   ar
    26    24    28   ar
    27    25    31    1
    28    25    26   ar
    29    26    27   ar
    30    26    29    1
    31    27    28   ar
    32    27    30    1
    33    31    32    3
