@<TRIPOS>MOLECULE
UNL
 35 37 0 0 0
SMALL
GASTEIGER

@<TRIPOS>ATOM
      1  C         82.2280   29.6760   18.3950 C.ar    1  UNL1        0.0000
      2  C         82.0770   30.9630   18.9590 C.ar    1  UNL1        0.0000
      3  C         80.8880   31.3460   19.5910 C.ar    1  UNL1        0.0000
      4  C         79.8250   30.4480   19.6570 C.ar    1  UNL1        0.0000
      5  C         79.9530   29.1720   19.1010 C.ar    1  UNL1        0.0000
      6  C         81.1540   28.7780   18.4850 C.ar    1  UNL1        0.0000
      7  H         82.8580   31.6340   18.9020 H       1  UNL1        0.0000
      8  H         78.9430   30.7250   20.1150 H       1  UNL1        0.0000
      9  H         79.1600   28.5140   19.1430 H       1  UNL1        0.0000
     10  C         87.7650   27.0790   16.2590 C.ar    1  UNL1        0.0000
     11  C         87.1360   28.2630   15.8890 C.ar    1  UNL1        0.0000
     12  F         87.6870   28.9870   14.9060 F       1  UNL1        0.0000
     13  C         85.9590   28.6670   16.5210 C.ar    1  UNL1        0.0000
     14  C         85.3860   27.8660   17.5280 C.ar    1  UNL1        0.0000
     15  C         86.0280   26.6830   17.9030 C.ar    1  UNL1        0.0000
     16  C         87.2110   26.3060   17.2710 C.ar    1  UNL1        0.0000
     17  F         87.8190   25.1720   17.6400 F       1  UNL1        0.0000
     18  N         84.1570   28.2270   18.0980 N.ar    1  UNL1        0.0000
     19  C         83.5390   29.4130   17.7790 C.ar    1  UNL1        0.0000
     20  C         84.0150   30.2680   16.8630 C.ar    1  UNL1        0.0000
     21  C         85.2790   29.9340   16.1580 C.ar    1  UNL1        0.0000
     22  O         85.7040   30.7040   15.3080 O.2     1  UNL1        0.0000
     23  H         88.6320   26.7780   15.7880 H       1  UNL1        0.0000
     24  H         85.6280   26.0900   18.6480 H       1  UNL1        0.0000
     25  H         83.7250   27.6170   18.7390 H       1  UNL1        0.0000
     26  H         83.5110   31.1430   16.6510 H       1  UNL1        0.0000
     27  S         81.2000   27.1320   17.7880 S.O2    1  UNL1        0.0000
     28  O         81.5380   27.2790   16.3840 O.2     1  UNL1        0.0000
     29  O         82.0120   26.2860   18.6390 O.2     1  UNL1        0.0000
     30  C         79.5140   26.5860   17.8760 C.3     1  UNL1        0.0000
     31  H         79.4840   25.5170   17.8850 H       1  UNL1        0.0000
     32  H         78.9760   26.9510   17.0260 H       1  UNL1        0.0000
     33  H         79.0630   26.9620   18.7710 H       1  UNL1        0.0000
     34  C         80.7720   32.6530   20.1680 C.1     1  UNL1        0.0000
     35  N         80.6710   33.7090   20.6410 N.1     1  UNL1        0.0000
@<TRIPOS>BOND
     1     1    19    1
     2     1     6   ar
     3     1     2   ar
     4     2     7    1
     5     2     3   ar
     6     3     4   ar
     7     3    34    1
     8     4     5   ar
     9     4     8    1
    10     5     6   ar
    11     5     9    1
    12     6    27    1
    13    10    23    1
    14    10    11   ar
    15    10    16   ar
    16    11    12    1
    17    11    13   ar
    18    13    21   ar
    19    13    14   ar
    20    14    15   ar
    21    14    18   ar
    22    15    16   ar
    23    15    24    1
    24    16    17    1
    25    18    19   ar
    26    18    25    1
    27    19    20   ar
    28    20    21   ar
    29    20    26    1
    30    21    22    2
    31    27    28    2
    32    27    30    1
    33    27    29    2
    34    30    32    1
    35    30    31    1
    36    30    33    1
    37    34    35    3
