@<TRIPOS>MOLECULE
UNL
 39 42 0 0 0
SMALL
GASTEIGER

@<TRIPOS>ATOM
      1  C         83.1320   28.6200   17.6070 C.ar    1  UNL1        0.0000
      2  C         84.1190   28.0930   16.7300 C.ar    1  UNL1        0.0000
      3  C         85.0670   28.8970   16.0800 C.ar    1  UNL1        0.0000
      4  C         85.0140   30.2750   16.2360 C.ar    1  UNL1        0.0000
      5  C         84.0160   30.8380   17.0300 C.ar    1  UNL1        0.0000
      6  C         83.0880   30.0290   17.7230 C.ar    1  UNL1        0.0000
      7  H         84.1390   27.0740   16.5650 H       1  UNL1        0.0000
      8  H         85.7090   30.8770   15.7670 H       1  UNL1        0.0000
      9  H         83.9550   31.8650   17.1140 H       1  UNL1        0.0000
     10  O         79.2380   25.8370   17.9740 O.2     1  UNL1        0.0000
     11  C         80.3050   26.1690   18.4740 C.ar    1  UNL1        0.0000
     12  C         80.8200   25.6000   19.7340 C.ar    1  UNL1        0.0000
     13  C         82.0160   26.1240   20.2520 C.ar    1  UNL1        0.0000
     14  C         82.5800   25.5310   21.3850 C.ar    1  UNL1        0.0000
     15  C         81.9240   24.4740   22.0120 C.ar    1  UNL1        0.0000
     16  F         82.4760   23.9070   23.0910 F       1  UNL1        0.0000
     17  C         80.7140   23.9900   21.5320 C.ar    1  UNL1        0.0000
     18  C         80.1670   24.5560   20.3870 C.ar    1  UNL1        0.0000
     19  F         79.0120   24.0560   19.9260 F       1  UNL1        0.0000
     20  N         82.6900   27.1540   19.5740 N.ar    1  UNL1        0.0000
     21  C         82.2830   27.6280   18.3470 C.ar    1  UNL1        0.0000
     22  C         81.1530   27.1660   17.7760 C.ar    1  UNL1        0.0000
     23  H         83.4790   25.8750   21.7560 H       1  UNL1        0.0000
     24  H         80.2290   23.2200   22.0180 H       1  UNL1        0.0000
     25  H         83.4860   27.5540   19.9940 H       1  UNL1        0.0000
     26  H         80.8750   27.5100   16.8430 H       1  UNL1        0.0000
     27  S         81.8590   30.9140   18.6740 S.O2    1  UNL1        0.0000
     28  O         82.1690   32.3300   18.5910 O.2     1  UNL1        0.0000
     29  O         80.5630   30.4250   18.2390 O.2     1  UNL1        0.0000
     30  C         82.0790   30.4160   20.4090 C.3     1  UNL1        0.0000
     31  C         80.7880   29.9360   21.0310 C.3     1  UNL1        0.0000
     32  C         81.3780   31.2560   21.4410 C.3     1  UNL1        0.0000
     33  H         83.0830   30.0580   20.3090 H       1  UNL1        0.0000
     34  H         80.7970   29.1110   21.7120 H       1  UNL1        0.0000
     35  H         79.8390   29.6150   20.6550 H       1  UNL1        0.0000
     36  H         80.8990   32.1680   21.1520 H       1  UNL1        0.0000
     37  H         81.6610   31.6980   22.3730 H       1  UNL1        0.0000
     38  C         86.1010   28.2950   15.2850 C.1     1  UNL1        0.0000
     39  N         86.9460   27.8280   14.6450 N.1     1  UNL1        0.0000
@<TRIPOS>BOND
     1     1     2   ar
     2     1     6   ar
     3     1    21    1
     4     2     3   ar
     5     2     7    1
     6     3    38    1
     7     3     4   ar
     8     4     8    1
     9     4     5   ar
    10     5     9    1
    11     5     6   ar
    12     6    27    1
    13    10    11    2
    14    11    22   ar
    15    11    12   ar
    16    12    13   ar
    17    12    18   ar
    18    13    20   ar
    19    13    14   ar
    20    14    23    1
    21    14    15   ar
    22    15    17   ar
    23    15    16    1
    24    17    18   ar
    25    17    24    1
    26    18    19    1
    27    20    21   ar
    28    20    25    1
    29    21    22   ar
    30    22    26    1
    31    27    29    2
    32    27    28    2
    33    27    30    1
    34    30    33    1
    35    30    31    1
    36    30    32    1
    37    31    35    1
    38    31    32    1
    39    31    34    1
    40    32    36    1
    41    32    37    1
    42    38    39    3
