@<TRIPOS>MOLECULE
UNL
 28 29 0 0 0
SMALL
GASTEIGER

@<TRIPOS>ATOM
      1  O         83.8610   28.9100   20.0280 O.2     1  UNL1        0.0000
      2  C         83.7780   28.3080   18.9640 C.2     1  UNL1        0.0000
      3  N         83.1070   27.1240   18.7330 N.am    1  UNL1        0.0000
      4  H         83.1450   26.7730   17.8140 H       1  UNL1        0.0000
      5  C         82.3710   26.3590   19.6620 C.ar    1  UNL1        0.0000
      6  C         82.8830   25.9080   20.8800 C.ar    1  UNL1        0.0000
      7  C         82.0930   25.1380   21.7380 C.ar    1  UNL1        0.0000
      8  C         80.7840   24.8150   21.3880 C.ar    1  UNL1        0.0000
      9  C         80.2620   25.2650   20.1800 C.ar    1  UNL1        0.0000
     10  C         81.0500   26.0350   19.3210 C.ar    1  UNL1        0.0000
     11  H         83.8500   26.1440   21.1480 H       1  UNL1        0.0000
     12  H         82.4810   24.8080   22.6360 H       1  UNL1        0.0000
     13  H         80.2050   24.2430   22.0220 H       1  UNL1        0.0000
     14  H         79.2910   25.0320   19.9180 H       1  UNL1        0.0000
     15  H         80.6580   26.3680   18.4270 H       1  UNL1        0.0000
     16  C         84.5330   28.8680   17.8070 C.ar    1  UNL1        0.0000
     17  C         85.6610   28.1330   17.3900 C.ar    1  UNL1        0.0000
     18  C         86.4260   28.5730   16.3050 C.ar    1  UNL1        0.0000
     19  C         86.0810   29.7460   15.6250 C.ar    1  UNL1        0.0000
     20  C         84.9740   30.4860   16.0490 C.ar    1  UNL1        0.0000
     21  C         84.2040   30.0580   17.1390 C.ar    1  UNL1        0.0000
     22 CL         82.8950   31.0850   17.6050 Cl      1  UNL1        0.0000
     23  H         85.9220   27.2670   17.8870 H       1  UNL1        0.0000
     24  H         86.6400   30.0630   14.8180 H       1  UNL1        0.0000
     25  H         84.7210   31.3560   15.5550 H       1  UNL1        0.0000
     26  N         87.5980   27.7990   15.8700 N.pl3   1  UNL1        0.0000
     27  O         88.2040   27.1420   16.7260 O.2     1  UNL1        0.0000
     28  O         87.9010   27.8460   14.6700 O.2     1  UNL1        0.0000
@<TRIPOS>BOND
     1     1     2    2
     2     2    16    1
     3     2     3   am
     4     3     4    1
     5     3     5    1
     6     5    10   ar
     7     5     6   ar
     8     6    11    1
     9     6     7   ar
    10     7     8   ar
    11     7    12    1
    12     8     9   ar
    13     8    13    1
    14     9    10   ar
    15     9    14    1
    16    10    15    1
    17    16    21   ar
    18    16    17   ar
    19    17    18   ar
    20    17    23    1
    21    18    19   ar
    22    18    26    1
    23    19    24    1
    24    19    20   ar
    25    20    25    1
    26    20    21   ar
    27    21    22    1
    28    26    28    2
    29    26    27    2
