@<TRIPOS>MOLECULE
UNL
 27 28 0 0 0
SMALL
GASTEIGER

@<TRIPOS>ATOM
      1  O         83.7990   29.1000   19.7390 O.2     1  UNL1        0.0000
      2  C         83.8320   28.3440   18.7730 C.2     1  UNL1        0.0000
      3  N         83.1510   27.1460   18.6800 N.am    1  UNL1        0.0000
      4  H         83.2250   26.6600   17.8270 H       1  UNL1        0.0000
      5  C         82.3580   26.5480   19.6880 C.ar    1  UNL1        0.0000
      6  C         82.8670   26.0530   20.8850 C.ar    1  UNL1        0.0000
      7  C         81.9960   25.4470   21.7750 C.ar    1  UNL1        0.0000
      8  N         80.6730   25.3040   21.5560 N.ar    1  UNL1        0.0000
      9  C         80.1990   25.8020   20.3960 C.ar    1  UNL1        0.0000
     10  C         80.9900   26.4330   19.4470 C.ar    1  UNL1        0.0000
     11  H         83.8720   26.1380   21.1060 H       1  UNL1        0.0000
     12  H         82.3830   25.0810   22.6590 H       1  UNL1        0.0000
     13  H         79.1910   25.7080   20.2030 H       1  UNL1        0.0000
     14  H         80.5730   26.8110   18.5820 H       1  UNL1        0.0000
     15  C         84.6800   28.7670   17.6130 C.ar    1  UNL1        0.0000
     16  C         85.6930   27.8550   17.2450 C.ar    1  UNL1        0.0000
     17  C         86.5150   28.1030   16.1400 C.ar    1  UNL1        0.0000
     18  C         86.3440   29.2650   15.3820 C.ar    1  UNL1        0.0000
     19  C         85.3480   30.1750   15.7430 C.ar    1  UNL1        0.0000
     20  C         84.5150   29.9340   16.8490 C.ar    1  UNL1        0.0000
     21 CL         83.3000   31.1270   17.1490 Cl      1  UNL1        0.0000
     22  H         85.8290   26.9950   17.7990 H       1  UNL1        0.0000
     23  H         86.9460   29.4480   14.5650 H       1  UNL1        0.0000
     24  H         85.2220   31.0370   15.1900 H       1  UNL1        0.0000
     25  N         87.5530   27.1320   15.7680 N.pl3   1  UNL1        0.0000
     26  O         88.1220   26.5170   16.6790 O.2     1  UNL1        0.0000
     27  O         87.7990   26.9950   14.5600 O.2     1  UNL1        0.0000
@<TRIPOS>BOND
     1     1     2    2
     2     2    15    1
     3     2     3   am
     4     3     4    1
     5     3     5    1
     6     5    10   ar
     7     5     6   ar
     8     6    11    1
     9     6     7   ar
    10     7     8   ar
    11     7    12    1
    12     8     9   ar
    13     9    10   ar
    14     9    13    1
    15    10    14    1
    16    15    20   ar
    17    15    16   ar
    18    16    17   ar
    19    16    22    1
    20    17    18   ar
    21    17    25    1
    22    18    23    1
    23    18    19   ar
    24    19    24    1
    25    19    20   ar
    26    20    21    1
    27    25    27    2
    28    25    26    2
