@<TRIPOS>MOLECULE
UNL
 28 29 0 0 0
SMALL
GASTEIGER

@<TRIPOS>ATOM
      1  C         83.1420   27.4960   16.9220 C.2     1  UNL1        0.0000
      2  N         82.7650   27.7420   18.2290 N.am    1  UNL1        0.0000
      3  O         82.4820   26.8610   16.1060 O.2     1  UNL1        0.0000
      4  H         83.3880   28.2680   18.7810 H       1  UNL1        0.0000
      5 CL         83.7800   30.6800   16.8480 Cl      1  UNL1        0.0000
      6  C         84.8450   29.3770   16.4510 C.ar    1  UNL1        0.0000
      7  C         86.1430   29.7400   16.0580 C.ar    1  UNL1        0.0000
      8  C         87.0730   28.7670   15.6820 C.ar    1  UNL1        0.0000
      9  C         86.6960   27.4220   15.6800 C.ar    1  UNL1        0.0000
     10  C         85.4010   27.0500   16.0620 C.ar    1  UNL1        0.0000
     11  C         84.4690   28.0240   16.4780 C.ar    1  UNL1        0.0000
     12  H         86.4120   30.7360   16.0450 H       1  UNL1        0.0000
     13  H         88.0300   29.0400   15.4090 H       1  UNL1        0.0000
     14  H         85.1260   26.0550   16.0400 H       1  UNL1        0.0000
     15  N         87.6710   26.3910   15.3000 N.pl3   1  UNL1        0.0000
     16  O         88.0060   25.5730   16.1690 O.2     1  UNL1        0.0000
     17  O         88.0890   26.3940   14.1360 O.2     1  UNL1        0.0000
     18  C         81.5710   27.3110   18.8490 C.ar    1  UNL1        0.0000
     19  C         81.3850   26.0270   19.3540 C.ar    1  UNL1        0.0000
     20  C         80.1470   25.6990   19.8900 C.ar    1  UNL1        0.0000
     21  N         79.1090   26.5680   19.9610 N.ar    1  UNL1        0.0000
     22  C         79.3240   27.8130   19.4900 C.ar    1  UNL1        0.0000
     23  C         80.5270   28.2320   18.9440 C.ar    1  UNL1        0.0000
     24  H         82.1500   25.3350   19.3320 H       1  UNL1        0.0000
     25  H         78.5480   28.4920   19.5380 H       1  UNL1        0.0000
     26  H         80.6470   29.2020   18.6160 H       1  UNL1        0.0000
     27  C         79.8990   24.3780   20.4050 C.1     1  UNL1        0.0000
     28  N         79.7240   23.3040   20.8110 N.1     1  UNL1        0.0000
@<TRIPOS>BOND
     1     1     3    2
     2     1    11    1
     3     1     2   am
     4     2     4    1
     5     2    18    1
     6     5     6    1
     7     6     7   ar
     8     6    11   ar
     9     7     8   ar
    10     7    12    1
    11     8    13    1
    12     8     9   ar
    13     9    15    1
    14     9    10   ar
    15    10    14    1
    16    10    11   ar
    17    15    17    2
    18    15    16    2
    19    18    23   ar
    20    18    19   ar
    21    19    24    1
    22    19    20   ar
    23    20    21   ar
    24    20    27    1
    25    21    22   ar
    26    22    23   ar
    27    22    25    1
    28    23    26    1
    29    27    28    3
