@<TRIPOS>MOLECULE
UNL
 28 29 0 0 0
SMALL
GASTEIGER

@<TRIPOS>ATOM
      1  C         83.6960   28.1630   17.9100 C.2     1  UNL1        0.0000
      2  N         85.0160   28.4530   17.6160 N.am    1  UNL1        0.0000
      3  O         82.9470   27.4950   17.2060 O.2     1  UNL1        0.0000
      4  H         85.5060   29.0160   18.2580 H       1  UNL1        0.0000
      5 CL         83.4200   26.3680   20.5990 Cl      1  UNL1        0.0000
      6  C         83.0120   28.0340   20.3950 C.ar    1  UNL1        0.0000
      7  C         82.5080   28.6910   21.5290 C.ar    1  UNL1        0.0000
      8  C         82.1170   30.0300   21.4640 C.ar    1  UNL1        0.0000
      9  C         82.2060   30.7120   20.2480 C.ar    1  UNL1        0.0000
     10  C         82.6950   30.0630   19.1060 C.ar    1  UNL1        0.0000
     11  C         83.1310   28.7230   19.1760 C.ar    1  UNL1        0.0000
     12  H         82.4250   28.1780   22.4200 H       1  UNL1        0.0000
     13  H         81.7630   30.5120   22.3050 H       1  UNL1        0.0000
     14  H         82.7350   30.5690   18.2070 H       1  UNL1        0.0000
     15  N         81.8130   32.1270   20.1720 N.pl3   1  UNL1        0.0000
     16  O         81.7500   32.7590   21.2360 O.2     1  UNL1        0.0000
     17  O         81.5830   32.6020   19.0530 O.2     1  UNL1        0.0000
     18  C         85.7230   28.0130   16.4740 C.ar    1  UNL1        0.0000
     19  C         86.5020   26.8560   16.4390 C.ar    1  UNL1        0.0000
     20  C         87.2500   26.5560   15.2970 C.ar    1  UNL1        0.0000
     21  C         87.1660   27.4140   14.2120 C.ar    1  UNL1        0.0000
     22  N         86.3750   28.5110   14.1830 N.ar    1  UNL1        0.0000
     23  C         85.6710   28.7790   15.3090 C.ar    1  UNL1        0.0000
     24  H         86.5250   26.2230   17.2540 H       1  UNL1        0.0000
     25  H         87.7410   27.2050   13.3800 H       1  UNL1        0.0000
     26  H         85.0540   29.6060   15.3050 H       1  UNL1        0.0000
     27  C         88.0930   25.4090   15.2480 C.1     1  UNL1        0.0000
     28  N         88.7870   24.4770   15.1970 N.1     1  UNL1        0.0000
@<TRIPOS>BOND
     1     1     3    2
     2     1     2   am
     3     1    11    1
     4     2    18    1
     5     2     4    1
     6     5     6    1
     7     6    11   ar
     8     6     7   ar
     9     7     8   ar
    10     7    12    1
    11     8     9   ar
    12     8    13    1
    13     9    10   ar
    14     9    15    1
    15    10    14    1
    16    10    11   ar
    17    15    17    2
    18    15    16    2
    19    18    23   ar
    20    18    19   ar
    21    19    20   ar
    22    19    24    1
    23    20    21   ar
    24    20    27    1
    25    21    25    1
    26    21    22   ar
    27    22    23   ar
    28    23    26    1
    29    27    28    3
