@<TRIPOS>MOLECULE
UNL
 28 29 0 0 0
SMALL
GASTEIGER

@<TRIPOS>ATOM
      1  C         87.9100   25.7610   16.0070 C.2     1  UNL1        0.0000
      2  N         88.3170   25.6110   14.6960 N.am    1  UNL1        0.0000
      3  O         88.3610   25.0960   16.9360 O.2     1  UNL1        0.0000
      4  H         88.0560   26.3200   14.0650 H       1  UNL1        0.0000
      5 CL         88.5890   28.9260   16.6250 Cl      1  UNL1        0.0000
      6  C         87.0430   28.1530   16.5580 C.ar    1  UNL1        0.0000
      7  C         85.9400   29.0040   16.7430 C.ar    1  UNL1        0.0000
      8  C         84.6350   28.5130   16.6940 C.ar    1  UNL1        0.0000
      9  C         84.4280   27.1500   16.4770 C.ar    1  UNL1        0.0000
     10  C         85.5220   26.2890   16.3090 C.ar    1  UNL1        0.0000
     11  C         86.8480   26.7790   16.3270 C.ar    1  UNL1        0.0000
     12  H         86.0970   30.0100   16.9170 H       1  UNL1        0.0000
     13  H         83.8310   29.1490   16.8170 H       1  UNL1        0.0000
     14  H         85.3550   25.2800   16.1680 H       1  UNL1        0.0000
     15  N         83.0580   26.6240   16.3920 N.pl3   1  UNL1        0.0000
     16  O         82.9200   25.3930   16.3700 O.2     1  UNL1        0.0000
     17  O         82.1280   27.4400   16.3530 O.2     1  UNL1        0.0000
     18  C         89.0710   24.5350   14.1750 C.ar    1  UNL1        0.0000
     19  C         89.2810   23.3170   14.8220 C.ar    1  UNL1        0.0000
     20  N         89.9170   22.2540   14.2630 N.ar    1  UNL1        0.0000
     21  C         90.3810   22.4050   13.0020 C.ar    1  UNL1        0.0000
     22  C         90.2580   23.5890   12.2880 C.ar    1  UNL1        0.0000
     23  C         89.5910   24.6640   12.8840 C.ar    1  UNL1        0.0000
     24  H         88.9320   23.2180   15.7870 H       1  UNL1        0.0000
     25  H         90.6500   23.6740   11.3370 H       1  UNL1        0.0000
     26  H         89.4830   25.5520   12.3710 H       1  UNL1        0.0000
     27  C         90.9820   21.2420   12.4050 C.1     1  UNL1        0.0000
     28  N         91.4200   20.2900   11.9030 N.1     1  UNL1        0.0000
@<TRIPOS>BOND
     1     1     2   am
     2     1    11    1
     3     1     3    2
     4     2     4    1
     5     2    18    1
     6     5     6    1
     7     6    11   ar
     8     6     7   ar
     9     7     8   ar
    10     7    12    1
    11     8     9   ar
    12     8    13    1
    13     9    10   ar
    14     9    15    1
    15    10    14    1
    16    10    11   ar
    17    15    17    2
    18    15    16    2
    19    18    23   ar
    20    18    19   ar
    21    19    20   ar
    22    19    24    1
    23    20    21   ar
    24    21    22   ar
    25    21    27    1
    26    22    25    1
    27    22    23   ar
    28    23    26    1
    29    27    28    3
