@<TRIPOS>MOLECULE
UNL
 30 31 0 0 0
SMALL
GASTEIGER

@<TRIPOS>ATOM
      1  C         83.3700   27.5660   17.2560 C.2     1  UNL1        0.0000
      2  N         83.1830   27.8560   18.5920 N.am    1  UNL1        0.0000
      3  O         82.6020   26.9070   16.5640 O.2     1  UNL1        0.0000
      4  H         83.7860   28.5250   18.9920 H       1  UNL1        0.0000
      5 CL         83.9730   30.7190   16.7260 Cl      1  UNL1        0.0000
      6  C         85.0030   29.3720   16.3860 C.ar    1  UNL1        0.0000
      7  C         86.2530   29.6750   15.8220 C.ar    1  UNL1        0.0000
      8  C         87.1490   28.6600   15.4810 C.ar    1  UNL1        0.0000
      9  C         86.7890   27.3270   15.6950 C.ar    1  UNL1        0.0000
     10  C         85.5440   27.0140   16.2530 C.ar    1  UNL1        0.0000
     11  C         84.6400   28.0360   16.6180 C.ar    1  UNL1        0.0000
     12  H         86.5120   30.6600   15.6580 H       1  UNL1        0.0000
     13  H         88.0680   28.8930   15.0750 H       1  UNL1        0.0000
     14  H         85.2830   26.0260   16.3980 H       1  UNL1        0.0000
     15  N         87.7290   26.2510   15.3480 N.pl3   1  UNL1        0.0000
     16  O         88.0560   25.4650   16.2480 O.2     1  UNL1        0.0000
     17  O         88.1290   26.1920   14.1800 O.2     1  UNL1        0.0000
     18  C         82.2080   27.2850   19.4410 C.ar    1  UNL1        0.0000
     19  C         80.8660   27.6520   19.4740 C.ar    1  UNL1        0.0000
     20  N         79.9250   27.0440   20.2420 N.ar    1  UNL1        0.0000
     21  C         80.3400   26.0230   21.0190 C.ar    1  UNL1        0.0000
     22  C         81.6530   25.5740   21.0740 C.ar    1  UNL1        0.0000
     23  C         82.5970   26.2310   20.2730 C.ar    1  UNL1        0.0000
     24  H         80.5650   28.4390   18.8760 H       1  UNL1        0.0000
     25  H         79.6390   25.5450   21.6070 H       1  UNL1        0.0000
     26  H         83.5860   25.9340   20.2970 H       1  UNL1        0.0000
     27  C         82.0500   24.4460   21.9720 C.3     1  UNL1        0.0000
     28  H         81.2500   23.7360   22.0270 H       1  UNL1        0.0000
     29  H         82.2580   24.8250   22.9510 H       1  UNL1        0.0000
     30  H         82.9240   23.9690   21.5800 H       1  UNL1        0.0000
@<TRIPOS>BOND
     1     1     3    2
     2     1    11    1
     3     1     2   am
     4     2     4    1
     5     2    18    1
     6     5     6    1
     7     6     7   ar
     8     6    11   ar
     9     7     8   ar
    10     7    12    1
    11     8    13    1
    12     8     9   ar
    13     9    15    1
    14     9    10   ar
    15    10    14    1
    16    10    11   ar
    17    15    17    2
    18    15    16    2
    19    18    19   ar
    20    18    23   ar
    21    19    24    1
    22    19    20   ar
    23    20    21   ar
    24    21    22   ar
    25    21    25    1
    26    22    23   ar
    27    22    27    1
    28    23    26    1
    29    27    30    1
    30    27    28    1
    31    27    29    1
