@<TRIPOS>MOLECULE
UNL
 27 28 0 0 0
SMALL
GASTEIGER

@<TRIPOS>ATOM
      1  C         83.8580   28.2970   18.9760 C.2     1  UNL1        0.0000
      2  N         83.0200   27.2120   18.8070 N.am    1  UNL1        0.0000
      3  O         84.0350   28.8950   20.0320 O.2     1  UNL1        0.0000
      4  H         82.9720   26.8250   17.9030 H       1  UNL1        0.0000
      5 CL         83.0250   31.0520   17.4580 Cl      1  UNL1        0.0000
      6  C         84.3240   29.9790   17.0710 C.ar    1  UNL1        0.0000
      7  C         85.1080   30.3400   15.9630 C.ar    1  UNL1        0.0000
      8  C         86.1580   29.5230   15.5340 C.ar    1  UNL1        0.0000
      9  C         86.4210   28.3310   16.2140 C.ar    1  UNL1        0.0000
     10  C         85.6450   27.9630   17.3210 C.ar    1  UNL1        0.0000
     11  C         84.5970   28.7920   17.7720 C.ar    1  UNL1        0.0000
     12  H         84.9060   31.2180   15.4580 H       1  UNL1        0.0000
     13  H         86.7340   29.7990   14.7240 H       1  UNL1        0.0000
     14  H         85.8440   27.0770   17.8110 H       1  UNL1        0.0000
     15  N         87.5190   27.4650   15.7690 N.pl3   1  UNL1        0.0000
     16  O         88.1250   26.8200   16.6370 O.2     1  UNL1        0.0000
     17  O         87.7680   27.4220   14.5570 O.2     1  UNL1        0.0000
     18  C         82.2230   26.6050   19.8050 C.ar    1  UNL1        0.0000
     19  C         82.7300   25.8690   20.8730 C.ar    1  UNL1        0.0000
     20  C         81.8490   25.2820   21.7710 C.ar    1  UNL1        0.0000
     21  F         82.3160   24.5670   22.8020 F       1  UNL1        0.0000
     22  C         80.4880   25.4450   21.5920 C.ar    1  UNL1        0.0000
     23  N         79.9510   26.1760   20.5870 N.ar    1  UNL1        0.0000
     24  C         80.8330   26.7400   19.7260 C.ar    1  UNL1        0.0000
     25  H         83.7490   25.7610   20.9940 H       1  UNL1        0.0000
     26  H         79.8470   24.9860   22.2580 H       1  UNL1        0.0000
     27  H         80.4520   27.3120   18.9550 H       1  UNL1        0.0000
@<TRIPOS>BOND
     1     1    11    1
     2     1     2   am
     3     1     3    2
     4     2     4    1
     5     2    18    1
     6     5     6    1
     7     6     7   ar
     8     6    11   ar
     9     7    12    1
    10     7     8   ar
    11     8    13    1
    12     8     9   ar
    13     9    15    1
    14     9    10   ar
    15    10    11   ar
    16    10    14    1
    17    15    17    2
    18    15    16    2
    19    18    24   ar
    20    18    19   ar
    21    19    25    1
    22    19    20   ar
    23    20    22   ar
    24    20    21    1
    25    22    23   ar
    26    22    26    1
    27    23    24   ar
    28    24    27    1
