@<TRIPOS>MOLECULE
UNL
 30 31 0 0 0
SMALL
GASTEIGER

@<TRIPOS>ATOM
      1  C         83.3520   29.3830   18.3140 C.2     1  UNL1        0.0000
      2  N         83.6280   28.0460   18.0950 N.am    1  UNL1        0.0000
      3  O         83.5750   30.2910   17.5220 O.2     1  UNL1        0.0000
      4  H         83.3970   27.4170   18.8170 H       1  UNL1        0.0000
      5 CL         84.3620   28.0460   21.0960 Cl      1  UNL1        0.0000
      6  C         83.1460   29.2560   20.8830 C.ar    1  UNL1        0.0000
      7  C         82.5210   29.7150   22.0520 C.ar    1  UNL1        0.0000
      8  C         81.5000   30.6680   21.9900 C.ar    1  UNL1        0.0000
      9  C         81.0870   31.1510   20.7450 C.ar    1  UNL1        0.0000
     10  C         81.6980   30.6920   19.5710 C.ar    1  UNL1        0.0000
     11  C         82.7520   29.7560   19.6320 C.ar    1  UNL1        0.0000
     12  H         82.8180   29.3470   22.9690 H       1  UNL1        0.0000
     13  H         81.0540   31.0110   22.8550 H       1  UNL1        0.0000
     14  H         81.3760   31.0420   18.6560 H       1  UNL1        0.0000
     15  N         80.0220   32.1580   20.6680 N.pl3   1  UNL1        0.0000
     16  O         78.8570   31.7720   20.8370 O.2     1  UNL1        0.0000
     17  O         80.3510   33.3300   20.4480 O.2     1  UNL1        0.0000
     18  C         84.2090   27.5030   16.9290 C.ar    1  UNL1        0.0000
     19  C         85.5250   27.7370   16.5320 C.ar    1  UNL1        0.0000
     20  C         85.9970   27.2240   15.3170 C.ar    1  UNL1        0.0000
     21  C         85.1230   26.4670   14.5510 C.ar    1  UNL1        0.0000
     22  N         83.8580   26.1720   14.9250 N.ar    1  UNL1        0.0000
     23  C         83.4350   26.6910   16.1020 C.ar    1  UNL1        0.0000
     24  H         86.1520   28.2910   17.1350 H       1  UNL1        0.0000
     25  H         85.4580   26.1060   13.6440 H       1  UNL1        0.0000
     26  H         82.4740   26.4710   16.4080 H       1  UNL1        0.0000
     27  C         87.3810   27.4930   14.8170 C.3     1  UNL1        0.0000
     28  F         87.4220   27.9830   13.5470 F       1  UNL1        0.0000
     29  F         88.0450   28.3990   15.5850 F       1  UNL1        0.0000
     30  F         88.1550   26.3740   14.8110 F       1  UNL1        0.0000
@<TRIPOS>BOND
     1     1     3    2
     2     1     2   am
     3     1    11    1
     4     2    18    1
     5     2     4    1
     6     5     6    1
     7     6    11   ar
     8     6     7   ar
     9     7     8   ar
    10     7    12    1
    11     8     9   ar
    12     8    13    1
    13     9    10   ar
    14     9    15    1
    15    10    14    1
    16    10    11   ar
    17    15    17    2
    18    15    16    2
    19    18    23   ar
    20    18    19   ar
    21    19    20   ar
    22    19    24    1
    23    20    21   ar
    24    20    27    1
    25    21    25    1
    26    21    22   ar
    27    22    23   ar
    28    23    26    1
    29    27    28    1
    30    27    30    1
    31    27    29    1
