@<TRIPOS>MOLECULE
UNL
 31 32 0 0 0
SMALL
GASTEIGER

@<TRIPOS>ATOM
      1  C         88.4520   25.0080   14.9320 C.2     1  UNL1        0.0000
      2  N         87.3890   25.7510   14.4510 N.am    1  UNL1        0.0000
      3  O         88.8060   24.9650   16.1060 O.2     1  UNL1        0.0000
      4  H         87.2120   25.7120   13.4830 H       1  UNL1        0.0000
      5 CL         89.9850   26.4170   12.4450 Cl      1  UNL1        0.0000
      6  C         89.9740   24.7410   12.8660 C.ar    1  UNL1        0.0000
      7  C         90.7240   23.8890   12.0410 C.ar    1  UNL1        0.0000
      8  C         90.7560   22.5120   12.2750 C.ar    1  UNL1        0.0000
      9  C         90.0100   21.9790   13.3300 C.ar    1  UNL1        0.0000
     10  C         89.2480   22.8190   14.1510 C.ar    1  UNL1        0.0000
     11  C         89.2470   24.2140   13.9460 C.ar    1  UNL1        0.0000
     12  H         91.2580   24.2840   11.2520 H       1  UNL1        0.0000
     13  H         91.3240   21.8940   11.6760 H       1  UNL1        0.0000
     14  H         88.6820   22.4130   14.9140 H       1  UNL1        0.0000
     15  N         90.0500   20.5350   13.5970 N.pl3   1  UNL1        0.0000
     16  O         89.3140   19.8070   12.9170 O.2     1  UNL1        0.0000
     17  O         90.8240   20.1320   14.4750 O.2     1  UNL1        0.0000
     18  C         86.5340   26.5610   15.2320 C.ar    1  UNL1        0.0000
     19  C         86.3610   27.9270   15.0280 C.ar    1  UNL1        0.0000
     20  C         85.5870   28.6930   15.9160 C.ar    1  UNL1        0.0000
     21  C         84.9870   28.0350   16.9840 C.ar    1  UNL1        0.0000
     22  N         85.0740   26.6890   17.1650 N.ar    1  UNL1        0.0000
     23  C         85.8320   25.9890   16.2870 C.ar    1  UNL1        0.0000
     24  H         86.8080   28.3830   14.2170 H       1  UNL1        0.0000
     25  H         85.8910   24.9660   16.4100 H       1  UNL1        0.0000
     26  C         85.4290   30.1700   15.7350 C.3     1  UNL1        0.0000
     27  F         84.2060   30.6330   16.1160 F       1  UNL1        0.0000
     28  F         86.3320   30.8810   16.4610 F       1  UNL1        0.0000
     29  F         85.5840   30.5550   14.4410 F       1  UNL1        0.0000
     30  C         84.2600   28.7360   18.0130 C.1     1  UNL1        0.0000
     31  N         83.6420   29.2930   18.8200 N.1     1  UNL1        0.0000
@<TRIPOS>BOND
     1     1    11    1
     2     1     2   am
     3     1     3    2
     4     2     4    1
     5     2    18    1
     6     5     6    1
     7     6     7   ar
     8     6    11   ar
     9     7    12    1
    10     7     8   ar
    11     8    13    1
    12     8     9   ar
    13     9    15    1
    14     9    10   ar
    15    10    11   ar
    16    10    14    1
    17    15    16    2
    18    15    17    2
    19    18    19   ar
    20    18    23   ar
    21    19    24    1
    22    19    20   ar
    23    20    26    1
    24    20    21   ar
    25    21    22   ar
    26    21    30    1
    27    22    23   ar
    28    23    25    1
    29    26    29    1
    30    26    27    1
    31    26    28    1
    32    30    31    3
