@<TRIPOS>MOLECULE
UNL
 30 31 0 0 0
SMALL
GASTEIGER

@<TRIPOS>ATOM
      1  C         83.0460   27.3620   17.5040 C.2     1  UNL1        0.0000
      2  N         82.8990   27.4710   18.8740 N.am    1  UNL1        0.0000
      3  O         82.4200   26.5820   16.7950 O.2     1  UNL1        0.0000
      4  H         83.3250   28.2450   19.3100 H       1  UNL1        0.0000
      5 CL         82.8660   30.6090   17.4680 Cl      1  UNL1        0.0000
      6  C         84.1080   29.6120   16.7990 C.ar    1  UNL1        0.0000
      7  C         85.1710   30.2840   16.1720 C.ar    1  UNL1        0.0000
      8  C         86.2240   29.5760   15.5860 C.ar    1  UNL1        0.0000
      9  C         86.2040   28.1800   15.6100 C.ar    1  UNL1        0.0000
     10  C         85.1380   27.4990   16.2130 C.ar    1  UNL1        0.0000
     11  C         84.0850   28.2090   16.8360 C.ar    1  UNL1        0.0000
     12  H         85.1750   31.3160   16.1450 H       1  UNL1        0.0000
     13  H         87.0070   30.0790   15.1420 H       1  UNL1        0.0000
     14  H         85.1210   26.4670   16.2040 H       1  UNL1        0.0000
     15  N         87.3230   27.4260   15.0300 N.pl3   1  UNL1        0.0000
     16  O         87.8080   26.5090   15.7080 O.2     1  UNL1        0.0000
     17  O         87.7100   27.7440   13.8970 O.2     1  UNL1        0.0000
     18  C         82.1920   26.5710   19.7090 C.ar    1  UNL1        0.0000
     19  C         80.9030   26.1070   19.4640 C.ar    1  UNL1        0.0000
     20  N         80.2830   25.1450   20.1980 N.ar    1  UNL1        0.0000
     21  C         80.9570   24.6210   21.2430 C.ar    1  UNL1        0.0000
     22  C         82.2270   25.0620   21.6010 C.ar    1  UNL1        0.0000
     23  C         82.8480   26.0430   20.8210 C.ar    1  UNL1        0.0000
     24  H         80.3840   26.5200   18.6740 H       1  UNL1        0.0000
     25  H         82.7030   24.6720   22.4280 H       1  UNL1        0.0000
     26  H         83.7930   26.3760   21.0690 H       1  UNL1        0.0000
     27  C         80.3110   23.4790   21.9660 C.3     1  UNL1        0.0000
     28  H         79.8000   23.8470   22.8310 H       1  UNL1        0.0000
     29  H         81.0610   22.7770   22.2670 H       1  UNL1        0.0000
     30  H         79.6100   22.9960   21.3170 H       1  UNL1        0.0000
@<TRIPOS>BOND
     1     1     3    2
     2     1    11    1
     3     1     2   am
     4     2     4    1
     5     2    18    1
     6     5     6    1
     7     6     7   ar
     8     6    11   ar
     9     7     8   ar
    10     7    12    1
    11     8    13    1
    12     8     9   ar
    13     9    15    1
    14     9    10   ar
    15    10    14    1
    16    10    11   ar
    17    15    17    2
    18    15    16    2
    19    18    19   ar
    20    18    23   ar
    21    19    24    1
    22    19    20   ar
    23    20    21   ar
    24    21    22   ar
    25    21    27    1
    26    22    23   ar
    27    22    25    1
    28    23    26    1
    29    27    30    1
    30    27    29    1
    31    27    28    1
