@<TRIPOS>MOLECULE
UNL
 30 31 0 0 0
SMALL
GASTEIGER

@<TRIPOS>ATOM
      1  C         83.8590   28.3150   18.9910 C.2     1  UNL1        0.0000
      2  N         82.9650   27.2750   18.8200 N.am    1  UNL1        0.0000
      3  O         84.0780   28.8980   20.0490 O.2     1  UNL1        0.0000
      4  H         82.8840   26.9040   17.9110 H       1  UNL1        0.0000
      5 CL         83.0520   31.0500   17.4290 Cl      1  UNL1        0.0000
      6  C         84.3490   29.9640   17.0680 C.ar    1  UNL1        0.0000
      7  C         85.1470   30.3040   15.9650 C.ar    1  UNL1        0.0000
      8  C         86.1960   29.4770   15.5600 C.ar    1  UNL1        0.0000
      9  C         86.4420   28.2910   16.2560 C.ar    1  UNL1        0.0000
     10  C         85.6510   27.9400   17.3560 C.ar    1  UNL1        0.0000
     11  C         84.6070   28.7860   17.7870 C.ar    1  UNL1        0.0000
     12  H         84.9560   31.1770   15.4460 H       1  UNL1        0.0000
     13  H         86.7860   29.7400   14.7540 H       1  UNL1        0.0000
     14  H         85.8330   27.0570   17.8560 H       1  UNL1        0.0000
     15  N         87.5400   27.4120   15.8370 N.pl3   1  UNL1        0.0000
     16  O         88.1450   26.7870   16.7240 O.2     1  UNL1        0.0000
     17  O         87.7930   27.3380   14.6280 O.2     1  UNL1        0.0000
     18  C         82.1590   26.6920   19.8210 C.ar    1  UNL1        0.0000
     19  C         82.6050   25.7230   20.7170 C.ar    1  UNL1        0.0000
     20  C         81.7180   25.1470   21.6330 C.ar    1  UNL1        0.0000
     21  C         80.4030   25.5960   21.6270 C.ar    1  UNL1        0.0000
     22  N         79.9380   26.5660   20.8090 N.ar    1  UNL1        0.0000
     23  C         80.8280   27.0900   19.9320 C.ar    1  UNL1        0.0000
     24  H         83.5940   25.4280   20.7060 H       1  UNL1        0.0000
     25  H         79.7390   25.1620   22.2890 H       1  UNL1        0.0000
     26  H         80.4970   27.8370   19.3010 H       1  UNL1        0.0000
     27  C         82.1620   24.0820   22.5840 C.3     1  UNL1        0.0000
     28  H         81.4360   23.9720   23.3610 H       1  UNL1        0.0000
     29  H         83.1040   24.3550   23.0100 H       1  UNL1        0.0000
     30  H         82.2650   23.1550   22.0580 H       1  UNL1        0.0000
@<TRIPOS>BOND
     1     1    11    1
     2     1     2   am
     3     1     3    2
     4     2     4    1
     5     2    18    1
     6     5     6    1
     7     6     7   ar
     8     6    11   ar
     9     7    12    1
    10     7     8   ar
    11     8    13    1
    12     8     9   ar
    13     9    15    1
    14     9    10   ar
    15    10    11   ar
    16    10    14    1
    17    15    17    2
    18    15    16    2
    19    18    23   ar
    20    18    19   ar
    21    19    24    1
    22    19    20   ar
    23    20    21   ar
    24    20    27    1
    25    21    22   ar
    26    21    25    1
    27    22    23   ar
    28    23    26    1
    29    27    30    1
    30    27    29    1
    31    27    28    1
