@<TRIPOS>MOLECULE
UNL
 30 31 0 0 0
SMALL
GASTEIGER

@<TRIPOS>ATOM
      1  C         88.6800   24.8930   14.7860 C.2     1  UNL1        0.0000
      2  N         89.0850   24.4770   13.5320 N.am    1  UNL1        0.0000
      3  O         89.0710   24.4090   15.8450 O.2     1  UNL1        0.0000
      4  H         88.8440   25.0500   12.7700 H       1  UNL1        0.0000
      5 CL         89.0070   27.7160   13.2040 Cl      1  UNL1        0.0000
      6  C         87.6830   27.2030   14.1910 C.ar    1  UNL1        0.0000
      7  C         86.6190   28.1080   14.3210 C.ar    1  UNL1        0.0000
      8  C         85.5100   27.8010   15.1130 C.ar    1  UNL1        0.0000
      9  C         85.4700   26.5810   15.7940 C.ar    1  UNL1        0.0000
     10  C         86.5310   25.6750   15.6760 C.ar    1  UNL1        0.0000
     11  C         87.6460   25.9700   14.8610 C.ar    1  UNL1        0.0000
     12  H         86.6550   29.0120   13.8240 H       1  UNL1        0.0000
     13  H         84.7290   28.4690   15.1970 H       1  UNL1        0.0000
     14  H         86.4970   24.7810   16.1910 H       1  UNL1        0.0000
     15  N         84.3040   26.2410   16.6200 N.pl3   1  UNL1        0.0000
     16  O         83.3170   25.7640   16.0430 O.2     1  UNL1        0.0000
     17  O         84.3820   26.4380   17.8390 O.2     1  UNL1        0.0000
     18  C         89.8150   23.2990   13.2460 C.ar    1  UNL1        0.0000
     19  C         91.0120   23.2570   12.5370 C.ar    1  UNL1        0.0000
     20  N         91.7620   22.1370   12.3660 N.ar    1  UNL1        0.0000
     21  C         91.3090   20.9760   12.9130 C.ar    1  UNL1        0.0000
     22  C         90.0930   20.9210   13.5960 C.ar    1  UNL1        0.0000
     23  C         89.3480   22.0920   13.7650 C.ar    1  UNL1        0.0000
     24  H         91.3520   24.1350   12.1130 H       1  UNL1        0.0000
     25  H         89.7460   20.0240   13.9710 H       1  UNL1        0.0000
     26  H         88.4510   22.0630   14.2760 H       1  UNL1        0.0000
     27  C         92.1630   19.7180   12.8170 C.3     1  UNL1        0.0000
     28  F         91.8120   18.8680   11.8110 F       1  UNL1        0.0000
     29  F         93.4830   20.0080   12.6090 F       1  UNL1        0.0000
     30  F         92.1330   18.9740   13.9620 F       1  UNL1        0.0000
@<TRIPOS>BOND
     1     1     2   am
     2     1    11    1
     3     1     3    2
     4     2     4    1
     5     2    18    1
     6     5     6    1
     7     6     7   ar
     8     6    11   ar
     9     7    12    1
    10     7     8   ar
    11     8    13    1
    12     8     9   ar
    13     9    10   ar
    14     9    15    1
    15    10    11   ar
    16    10    14    1
    17    15    16    2
    18    15    17    2
    19    18    19   ar
    20    18    23   ar
    21    19    24    1
    22    19    20   ar
    23    20    21   ar
    24    21    27    1
    25    21    22   ar
    26    22    23   ar
    27    22    25    1
    28    23    26    1
    29    27    28    1
    30    27    29    1
    31    27    30    1
