@<TRIPOS>MOLECULE
UNL
 28 29 0 0 0
SMALL
GASTEIGER

@<TRIPOS>ATOM
      1  C         88.6290   25.0880   14.6210 C.2     1  UNL1        0.0000
      2  N         88.0560   26.2180   14.0900 N.am    1  UNL1        0.0000
      3  C         87.2860   27.1670   14.7670 C.ar    1  UNL1        0.0000
      4  N         86.6720   28.0610   13.9560 N.ar    1  UNL1        0.0000
      5  C         85.8640   28.9830   14.5420 C.ar    1  UNL1        0.0000
      6  C         85.6500   29.0760   15.9090 C.ar    1  UNL1        0.0000
      7  C         86.3230   28.1760   16.7260 C.ar    1  UNL1        0.0000
      8  C         87.1500   27.2100   16.1490 C.ar    1  UNL1        0.0000
      9  O         88.4990   24.7050   15.7800 O.2     1  UNL1        0.0000
     10  H         88.2040   26.3760   13.1290 H       1  UNL1        0.0000
     11  H         85.3790   29.6590   13.9300 H       1  UNL1        0.0000
     12  H         86.2120   28.2210   17.7510 H       1  UNL1        0.0000
     13  H         87.6560   26.5350   16.7440 H       1  UNL1        0.0000
     14 CL         90.3090   26.3170   12.1510 Cl      1  UNL1        0.0000
     15  C         90.2100   24.6630   12.6380 C.ar    1  UNL1        0.0000
     16  C         91.0020   23.7540   11.9210 C.ar    1  UNL1        0.0000
     17  C         91.0280   22.3980   12.2650 C.ar    1  UNL1        0.0000
     18  C         90.2420   21.9480   13.3290 C.ar    1  UNL1        0.0000
     19  C         89.4440   22.8450   14.0470 C.ar    1  UNL1        0.0000
     20  C         89.4270   24.2150   13.7120 C.ar    1  UNL1        0.0000
     21  H         91.5730   24.0890   11.1290 H       1  UNL1        0.0000
     22  H         91.6220   21.7390   11.7390 H       1  UNL1        0.0000
     23  H         88.8620   22.5020   14.8270 H       1  UNL1        0.0000
     24  N         90.2650   20.5300   13.7070 N.pl3   1  UNL1        0.0000
     25  O         89.3720   19.8010   13.2460 O.2     1  UNL1        0.0000
     26  O         91.1670   20.1500   14.4650 O.2     1  UNL1        0.0000
     27  C         84.7650   30.0580   16.4470 C.1     1  UNL1        0.0000
     28  N         84.0360   30.8510   16.8790 N.1     1  UNL1        0.0000
@<TRIPOS>BOND
     1     1    20    1
     2     1     2   am
     3     1     9    2
     4     2    10    1
     5     2     3    1
     6     3     4   ar
     7     3     8   ar
     8     4     5   ar
     9     5    11    1
    10     5     6   ar
    11     6    27    1
    12     6     7   ar
    13     7     8   ar
    14     7    12    1
    15     8    13    1
    16    14    15    1
    17    15    16   ar
    18    15    20   ar
    19    16    21    1
    20    16    17   ar
    21    17    22    1
    22    17    18   ar
    23    18    24    1
    24    18    19   ar
    25    19    20   ar
    26    19    23    1
    27    24    25    2
    28    24    26    2
    29    27    28    3
