@<TRIPOS>MOLECULE
UNL
 34 35 0 0 0
SMALL
GASTEIGER

@<TRIPOS>ATOM
      1  C         87.6960   25.8590   15.9970 C.2     1  UNL1        0.0000
      2  N         88.0220   25.6040   14.6800 N.am    1  UNL1        0.0000
      3  O         88.1460   25.2790   16.9790 O.2     1  UNL1        0.0000
      4  H         87.5160   26.1050   13.9990 H       1  UNL1        0.0000
      5 CL         88.5280   28.9330   16.5520 Cl      1  UNL1        0.0000
      6  C         86.9340   28.2710   16.4800 C.ar    1  UNL1        0.0000
      7  C         85.8780   29.1690   16.7030 C.ar    1  UNL1        0.0000
      8  C         84.5520   28.7270   16.7030 C.ar    1  UNL1        0.0000
      9  C         84.2820   27.3730   16.4890 C.ar    1  UNL1        0.0000
     10  C         85.3260   26.4670   16.2680 C.ar    1  UNL1        0.0000
     11  C         86.6640   26.9120   16.2450 C.ar    1  UNL1        0.0000
     12  H         86.0840   30.1670   16.8690 H       1  UNL1        0.0000
     13  H         83.7800   29.3950   16.8580 H       1  UNL1        0.0000
     14  H         85.1170   25.4680   16.1210 H       1  UNL1        0.0000
     15  N         82.8890   26.9000   16.4850 N.pl3   1  UNL1        0.0000
     16  O         82.6960   25.6940   16.6870 O.2     1  UNL1        0.0000
     17  O         81.9990   27.7360   16.2870 O.2     1  UNL1        0.0000
     18  C         89.0000   24.7060   14.2000 C.ar    1  UNL1        0.0000
     19  C         89.6740   24.8590   12.9850 C.ar    1  UNL1        0.0000
     20  C         90.5530   23.8710   12.5270 C.ar    1  UNL1        0.0000
     21  C         90.7730   22.7290   13.2970 C.ar    1  UNL1        0.0000
     22  C         90.1430   22.5800   14.5320 C.ar    1  UNL1        0.0000
     23  C         89.2670   23.5730   14.9840 C.ar    1  UNL1        0.0000
     24  H         89.5210   25.7090   12.4200 H       1  UNL1        0.0000
     25  H         91.0370   23.9880   11.6230 H       1  UNL1        0.0000
     26  H         90.3220   21.7420   15.1090 H       1  UNL1        0.0000
     27  H         88.8120   23.4710   15.9040 H       1  UNL1        0.0000
     28  S         91.7310   21.3900   12.6240 S.O2    1  UNL1        0.0000
     29  O         90.9400   20.7730   11.5760 O.2     1  UNL1        0.0000
     30  O         93.0580   21.9080   12.3410 O.2     1  UNL1        0.0000
     31  C         91.8670   20.2330   13.9570 C.3     1  UNL1        0.0000
     32  H         92.8560   20.2710   14.3630 H       1  UNL1        0.0000
     33  H         91.6680   19.2470   13.5930 H       1  UNL1        0.0000
     34  H         91.1580   20.4830   14.7190 H       1  UNL1        0.0000
@<TRIPOS>BOND
     1     1     2   am
     2     1    11    1
     3     1     3    2
     4     2     4    1
     5     2    18    1
     6     5     6    1
     7     6    11   ar
     8     6     7   ar
     9     7     8   ar
    10     7    12    1
    11     8     9   ar
    12     8    13    1
    13     9    10   ar
    14     9    15    1
    15    10    14    1
    16    10    11   ar
    17    15    17    2
    18    15    16    2
    19    18    19   ar
    20    18    23   ar
    21    19    24    1
    22    19    20   ar
    23    20    25    1
    24    20    21   ar
    25    21    28    1
    26    21    22   ar
    27    22    23   ar
    28    22    26    1
    29    23    27    1
    30    28    29    2
    31    28    30    2
    32    28    31    1
    33    31    33    1
    34    31    32    1
    35    31    34    1
