@<TRIPOS>MOLECULE
UNL
 27 28 0 0 0
SMALL
GASTEIGER

@<TRIPOS>ATOM
      1  C         83.9380   28.2710   18.9570 C.2     1  UNL1        0.0000
      2  N         83.2160   27.0980   18.8650 N.am    1  UNL1        0.0000
      3  O         84.0100   28.9740   19.9570 O.2     1  UNL1        0.0000
      4  H         83.3570   26.5500   18.0590 H       1  UNL1        0.0000
      5 CL         83.1010   31.0440   17.4770 Cl      1  UNL1        0.0000
      6  C         84.3660   29.9510   17.0410 C.ar    1  UNL1        0.0000
      7  C         85.1310   30.3060   15.9180 C.ar    1  UNL1        0.0000
      8  C         86.1640   29.4790   15.4640 C.ar    1  UNL1        0.0000
      9  C         86.4240   28.2790   16.1320 C.ar    1  UNL1        0.0000
     10  C         85.6630   27.9150   17.2490 C.ar    1  UNL1        0.0000
     11  C         84.6340   28.7540   17.7240 C.ar    1  UNL1        0.0000
     12  H         84.9300   31.1880   15.4210 H       1  UNL1        0.0000
     13  H         86.7280   29.7510   14.6430 H       1  UNL1        0.0000
     14  H         85.8570   27.0220   17.7290 H       1  UNL1        0.0000
     15  N         87.5150   27.4080   15.6700 N.pl3   1  UNL1        0.0000
     16  O         87.7630   27.3970   14.4570 O.2     1  UNL1        0.0000
     17  O         88.1220   26.7460   16.5220 O.2     1  UNL1        0.0000
     18  C         82.2950   26.6100   19.8170 C.ar    1  UNL1        0.0000
     19  C         80.9100   26.7430   19.7310 C.ar    1  UNL1        0.0000
     20  N         80.0340   26.2070   20.6210 N.ar    1  UNL1        0.0000
     21  C         80.5590   25.5150   21.6510 C.ar    1  UNL1        0.0000
     22  C         81.9190   25.3370   21.8370 C.ar    1  UNL1        0.0000
     23  C         82.7960   25.8910   20.9050 C.ar    1  UNL1        0.0000
     24  H         80.5240   27.2830   18.9400 H       1  UNL1        0.0000
     25  H         79.9130   25.0960   22.3370 H       1  UNL1        0.0000
     26  H         82.2770   24.8070   22.6470 H       1  UNL1        0.0000
     27  H         83.8140   25.7700   21.0180 H       1  UNL1        0.0000
@<TRIPOS>BOND
     1     1    11    1
     2     1     2   am
     3     1     3    2
     4     2     4    1
     5     2    18    1
     6     5     6    1
     7     6     7   ar
     8     6    11   ar
     9     7    12    1
    10     7     8   ar
    11     8    13    1
    12     8     9   ar
    13     9    15    1
    14     9    10   ar
    15    10    11   ar
    16    10    14    1
    17    15    16    2
    18    15    17    2
    19    18    19   ar
    20    18    23   ar
    21    19    24    1
    22    19    20   ar
    23    20    21   ar
    24    21    22   ar
    25    21    25    1
    26    22    23   ar
    27    22    26    1
    28    23    27    1
