@<TRIPOS>MOLECULE
UNL
 32 33 0 0 0
SMALL
GASTEIGER

@<TRIPOS>ATOM
      1  C         88.5080   25.1160   14.7280 C.2     1  UNL1        0.0000
      2  N         87.8420   26.1670   14.1300 N.am    1  UNL1        0.0000
      3  O         88.5160   24.8540   15.9280 O.2     1  UNL1        0.0000
      4  H         87.9640   26.2680   13.1570 H       1  UNL1        0.0000
      5 CL         90.1970   26.3360   12.2550 Cl      1  UNL1        0.0000
      6  C         90.1150   24.6870   12.7630 C.ar    1  UNL1        0.0000
      7  C         90.8610   23.7670   12.0110 C.ar    1  UNL1        0.0000
      8  C         90.8340   22.4040   12.3180 C.ar    1  UNL1        0.0000
      9  C         90.0380   21.9540   13.3760 C.ar    1  UNL1        0.0000
     10  C         89.2850   22.8630   14.1290 C.ar    1  UNL1        0.0000
     11  C         89.3330   24.2430   13.8400 C.ar    1  UNL1        0.0000
     12  H         91.4360   24.1000   11.2230 H       1  UNL1        0.0000
     13  H         91.3970   21.7350   11.7690 H       1  UNL1        0.0000
     14  H         88.6920   22.5210   14.9000 H       1  UNL1        0.0000
     15  N         90.0060   20.5240   13.7090 N.pl3   1  UNL1        0.0000
     16  O         90.7850   20.1220   14.5830 O.2     1  UNL1        0.0000
     17  O         89.1950   19.8110   13.1050 O.2     1  UNL1        0.0000
     18  C         87.0060   27.1150   14.7600 C.ar    1  UNL1        0.0000
     19  C         87.4300   28.3840   15.1590 C.ar    1  UNL1        0.0000
     20  C         86.5720   29.2400   15.8620 C.ar    1  UNL1        0.0000
     21  C         85.2690   28.8360   16.1660 C.ar    1  UNL1        0.0000
     22  C         84.8240   27.5850   15.7280 C.ar    1  UNL1        0.0000
     23  C         85.6840   26.7340   15.0220 C.ar    1  UNL1        0.0000
     24  H         88.3870   28.6950   14.9330 H       1  UNL1        0.0000
     25  H         86.9040   30.1720   16.1570 H       1  UNL1        0.0000
     26  H         83.8560   27.2860   15.9270 H       1  UNL1        0.0000
     27  H         85.3390   25.8200   14.6910 H       1  UNL1        0.0000
     28  C         84.3590   29.6610   17.0060 C.2     1  UNL1        0.0000
     29  N         83.9070   29.1220   18.1780 N.am    1  UNL1        0.0000
     30  O         84.0290   30.7910   16.6690 O.2     1  UNL1        0.0000
     31  H         84.1800   28.2120   18.4380 H       1  UNL1        0.0000
     32  H         83.3080   29.6430   18.7600 H       1  UNL1        0.0000
@<TRIPOS>BOND
     1     1    11    1
     2     1     2   am
     3     1     3    2
     4     2     4    1
     5     2    18    1
     6     5     6    1
     7     6     7   ar
     8     6    11   ar
     9     7    12    1
    10     7     8   ar
    11     8    13    1
    12     8     9   ar
    13     9    15    1
    14     9    10   ar
    15    10    11   ar
    16    10    14    1
    17    15    17    2
    18    15    16    2
    19    18    23   ar
    20    18    19   ar
    21    19    24    1
    22    19    20   ar
    23    20    25    1
    24    20    21   ar
    25    21    22   ar
    26    21    28    1
    27    22    23   ar
    28    22    26    1
    29    23    27    1
    30    28    30    2
    31    28    29   am
    32    29    31    1
    33    29    32    1
