@<TRIPOS>MOLECULE
UNL
 31 32 0 0 0
SMALL
GASTEIGER

@<TRIPOS>ATOM
      1  C         87.8610   25.7940   15.7050 C.2     1  UNL1        0.0000
      2  N         88.2070   25.6470   14.3750 N.am    1  UNL1        0.0000
      3  O         88.3200   25.1330   16.6320 O.2     1  UNL1        0.0000
      4  H         87.7780   26.2580   13.7340 H       1  UNL1        0.0000
      5 CL         88.6660   28.8680   16.4200 Cl      1  UNL1        0.0000
      6  C         87.0830   28.1760   16.3410 C.ar    1  UNL1        0.0000
      7  C         86.0180   29.0450   16.6280 C.ar    1  UNL1        0.0000
      8  C         84.7000   28.5850   16.6320 C.ar    1  UNL1        0.0000
      9  C         84.4440   27.2380   16.3590 C.ar    1  UNL1        0.0000
     10  C         85.4990   26.3640   16.0720 C.ar    1  UNL1        0.0000
     11  C         86.8330   26.8260   16.0450 C.ar    1  UNL1        0.0000
     12  H         86.2120   30.0370   16.8360 H       1  UNL1        0.0000
     13  H         83.9220   29.2320   16.8340 H       1  UNL1        0.0000
     14  H         85.3000   25.3690   15.8790 H       1  UNL1        0.0000
     15  N         83.0620   26.7400   16.3630 N.pl3   1  UNL1        0.0000
     16  O         82.1510   27.5810   16.3230 O.2     1  UNL1        0.0000
     17  O         82.8900   25.5150   16.4010 O.2     1  UNL1        0.0000
     18  C         89.1190   24.7040   13.8470 C.ar    1  UNL1        0.0000
     19  C         89.9220   24.9500   12.7380 C.ar    1  UNL1        0.0000
     20  C         90.7570   23.9410   12.2860 C.ar    1  UNL1        0.0000
     21  N         90.8330   22.7200   12.8520 N.ar    1  UNL1        0.0000
     22  C         90.0490   22.5060   13.9270 C.ar    1  UNL1        0.0000
     23  C         89.2090   23.4620   14.4740 C.ar    1  UNL1        0.0000
     24  H         89.8970   25.8650   12.2610 H       1  UNL1        0.0000
     25  H         91.3550   24.1350   11.4680 H       1  UNL1        0.0000
     26  H         88.6620   23.2600   15.3260 H       1  UNL1        0.0000
     27  O         90.0460   21.2650   14.5340 O.3     1  UNL1        0.0000
     28  C         90.0410   20.1940   13.5940 C.3     1  UNL1        0.0000
     29  H         91.0210   20.0770   13.1810 H       1  UNL1        0.0000
     30  H         89.3470   20.4100   12.8100 H       1  UNL1        0.0000
     31  H         89.7510   19.2880   14.0860 H       1  UNL1        0.0000
@<TRIPOS>BOND
     1     1     2   am
     2     1    11    1
     3     1     3    2
     4     2     4    1
     5     2    18    1
     6     5     6    1
     7     6    11   ar
     8     6     7   ar
     9     7     8   ar
    10     7    12    1
    11     8     9   ar
    12     8    13    1
    13     9    10   ar
    14     9    15    1
    15    10    14    1
    16    10    11   ar
    17    15    16    2
    18    15    17    2
    19    18    19   ar
    20    18    23   ar
    21    19    24    1
    22    19    20   ar
    23    20    25    1
    24    20    21   ar
    25    21    22   ar
    26    22    23   ar
    27    22    27    1
    28    23    26    1
    29    27    28    1
    30    28    30    1
    31    28    29    1
    32    28    31    1
