@<TRIPOS>MOLECULE
UNL
 29 30 0 0 0
SMALL
GASTEIGER

@<TRIPOS>ATOM
      1  C         83.7260   28.1200   18.4300 C.2     1  UNL1        0.0000
      2  N         84.3350   27.8380   19.6400 N.am    1  UNL1        0.0000
      3  O         82.5430   27.9230   18.1690 O.2     1  UNL1        0.0000
      4  H         85.2990   28.0260   19.7110 H       1  UNL1        0.0000
      5 CL         83.2440   31.1180   17.2840 Cl      1  UNL1        0.0000
      6  C         84.4620   29.9860   16.8090 C.ar    1  UNL1        0.0000
      7  C         85.3460   30.4140   15.8060 C.ar    1  UNL1        0.0000
      8  C         86.3460   29.5650   15.3260 C.ar    1  UNL1        0.0000
      9  C         86.4500   28.2690   15.8390 C.ar    1  UNL1        0.0000
     10  C         85.5670   27.8280   16.8310 C.ar    1  UNL1        0.0000
     11  C         84.5770   28.6930   17.3450 C.ar    1  UNL1        0.0000
     12  H         85.2560   31.3660   15.4190 H       1  UNL1        0.0000
     13  H         87.0020   29.8910   14.5990 H       1  UNL1        0.0000
     14  H         85.6390   26.8630   17.1900 H       1  UNL1        0.0000
     15  N         87.5070   27.3730   15.3510 N.pl3   1  UNL1        0.0000
     16  O         87.9660   26.5430   16.1480 O.2     1  UNL1        0.0000
     17  O         87.8680   27.4930   14.1720 O.2     1  UNL1        0.0000
     18  C         83.6990   27.3060   20.7820 C.ar    1  UNL1        0.0000
     19  C         83.0700   26.0590   20.7990 C.ar    1  UNL1        0.0000
     20  C         82.3660   25.6340   21.9330 C.ar    1  UNL1        0.0000
     21  C         82.3080   26.4500   23.0640 C.ar    1  UNL1        0.0000
     22  C         82.9800   27.6720   23.0740 C.ar    1  UNL1        0.0000
     23  C         83.6850   28.0900   21.9420 C.ar    1  UNL1        0.0000
     24  H         83.1220   25.4470   19.9700 H       1  UNL1        0.0000
     25  H         81.7690   26.1500   23.8910 H       1  UNL1        0.0000
     26  H         82.9570   28.2660   23.9170 H       1  UNL1        0.0000
     27  H         84.2000   28.9850   21.9620 H       1  UNL1        0.0000
     28  C         81.6930   24.3670   21.9230 C.1     1  UNL1        0.0000
     29  N         81.1620   23.3380   21.9180 N.1     1  UNL1        0.0000
@<TRIPOS>BOND
     1     1    11    1
     2     1     3    2
     3     1     2   am
     4     2     4    1
     5     2    18    1
     6     5     6    1
     7     6     7   ar
     8     6    11   ar
     9     7     8   ar
    10     7    12    1
    11     8    13    1
    12     8     9   ar
    13     9    15    1
    14     9    10   ar
    15    10    14    1
    16    10    11   ar
    17    15    17    2
    18    15    16    2
    19    18    19   ar
    20    18    23   ar
    21    19    24    1
    22    19    20   ar
    23    20    28    1
    24    20    21   ar
    25    21    22   ar
    26    21    25    1
    27    22    23   ar
    28    22    26    1
    29    23    27    1
    30    28    29    3
