@<TRIPOS>MOLECULE
UNL
 33 35 0 0 0
SMALL
GASTEIGER

@<TRIPOS>ATOM
      1  C         88.4730   25.0270   15.2770 C.2     1  UNL1        0.0000
      2  N         88.9080   24.4960   14.0750 N.am    1  UNL1        0.0000
      3  O         88.8740   24.6990   16.3910 O.2     1  UNL1        0.0000
      4  H         88.6370   24.9780   13.2620 H       1  UNL1        0.0000
      5  C         89.7060   23.3290   13.8850 C.ar    1  UNL1        0.0000
      6  C         90.5980   22.9010   14.8650 C.ar    1  UNL1        0.0000
      7  C         91.2540   21.6980   14.6910 C.ar    1  UNL1        0.0000
      8  N         91.0760   20.8950   13.6260 N.ar    1  UNL1        0.0000
      9  C         90.2360   21.3020   12.6660 C.ar    1  UNL1        0.0000
     10  C         89.5320   22.5290   12.7160 C.ar    1  UNL1        0.0000
     11  C         88.7190   22.8650   11.5990 C.ar    1  UNL1        0.0000
     12  C         88.5720   22.0020   10.5110 C.ar    1  UNL1        0.0000
     13  C         89.2330   20.7850   10.5090 C.ar    1  UNL1        0.0000
     14  C         90.0630   20.4550   11.5790 C.ar    1  UNL1        0.0000
     15  H         90.7670   23.4720   15.7080 H       1  UNL1        0.0000
     16  H         91.9200   21.3980   15.4190 H       1  UNL1        0.0000
     17  H         88.2250   23.7710   11.5920 H       1  UNL1        0.0000
     18  H         87.9740   22.2700    9.7130 H       1  UNL1        0.0000
     19  H         89.1120   20.1280    9.7220 H       1  UNL1        0.0000
     20  H         90.5640   19.5530   11.5630 H       1  UNL1        0.0000
     21 CL         88.6740   27.6760   13.4140 Cl      1  UNL1        0.0000
     22  C         87.3590   27.1930   14.4250 C.ar    1  UNL1        0.0000
     23  C         86.2430   28.0460   14.4350 C.ar    1  UNL1        0.0000
     24  C         85.1360   27.7660   15.2400 C.ar    1  UNL1        0.0000
     25  C         85.1500   26.6290   16.0530 C.ar    1  UNL1        0.0000
     26  C         86.2620   25.7760   16.0550 C.ar    1  UNL1        0.0000
     27  C         87.3740   26.0420   15.2240 C.ar    1  UNL1        0.0000
     28  H         86.2400   28.8900   13.8410 H       1  UNL1        0.0000
     29  H         84.3160   28.3920   15.2360 H       1  UNL1        0.0000
     30  H         86.2690   24.9460   16.6680 H       1  UNL1        0.0000
     31  N         83.9840   26.3170   16.8910 N.pl3   1  UNL1        0.0000
     32  O         84.0610   26.5870   18.0980 O.2     1  UNL1        0.0000
     33  O         82.9950   25.8160   16.3420 O.2     1  UNL1        0.0000
@<TRIPOS>BOND
     1     1     2   am
     2     1    27    1
     3     1     3    2
     4     2     4    1
     5     2     5    1
     6     5    10   ar
     7     5     6   ar
     8     6     7   ar
     9     6    15    1
    10     7     8   ar
    11     7    16    1
    12     8     9   ar
    13     9    14   ar
    14     9    10   ar
    15    10    11   ar
    16    11    12   ar
    17    11    17    1
    18    12    18    1
    19    12    13   ar
    20    13    19    1
    21    13    14   ar
    22    14    20    1
    23    21    22    1
    24    22    23   ar
    25    22    27   ar
    26    23    28    1
    27    23    24   ar
    28    24    29    1
    29    24    25   ar
    30    25    26   ar
    31    25    31    1
    32    26    27   ar
    33    26    30    1
    34    31    33    2
    35    31    32    2
