@<TRIPOS>MOLECULE
UNL
 28 29 0 0 0
SMALL
GASTEIGER

@<TRIPOS>ATOM
      1  C         83.9060   27.8440   18.1400 C.2     1  UNL1        0.0000
      2  N         82.6390   27.4910   17.7310 N.am    1  UNL1        0.0000
      3  C         81.6240   27.1510   18.6340 C.ar    1  UNL1        0.0000
      4  N         80.9740   26.0150   18.2850 N.ar    1  UNL1        0.0000
      5  C         80.0430   25.5420   19.1420 C.ar    1  UNL1        0.0000
      6  C         79.6870   26.1800   20.3160 C.ar    1  UNL1        0.0000
      7  C         80.3030   27.3910   20.6160 C.ar    1  UNL1        0.0000
      8  C         81.2880   27.9000   19.7630 C.ar    1  UNL1        0.0000
      9  O         84.2560   27.9000   19.3160 O.2     1  UNL1        0.0000
     10  H         82.4400   27.4790   16.7680 H       1  UNL1        0.0000
     11  H         79.5710   24.6540   18.9080 H       1  UNL1        0.0000
     12  H         78.9850   25.7710   20.9510 H       1  UNL1        0.0000
     13  H         80.0350   27.9110   21.4660 H       1  UNL1        0.0000
     14 CL         84.0170   30.7820   16.7490 Cl      1  UNL1        0.0000
     15  C         85.0630   29.4350   16.4710 C.ar    1  UNL1        0.0000
     16  C         86.0940   29.6380   15.5400 C.ar    1  UNL1        0.0000
     17  C         86.9700   28.6020   15.2080 C.ar    1  UNL1        0.0000
     18  C         86.8030   27.3450   15.7980 C.ar    1  UNL1        0.0000
     19  C         85.7740   27.1300   16.7210 C.ar    1  UNL1        0.0000
     20  C         84.9070   28.1820   17.0860 C.ar    1  UNL1        0.0000
     21  H         86.2050   30.5620   15.0960 H       1  UNL1        0.0000
     22  H         87.7350   28.7640   14.5340 H       1  UNL1        0.0000
     23  H         85.6480   26.1940   17.1400 H       1  UNL1        0.0000
     24  N         87.7260   26.2540   15.4610 N.pl3   1  UNL1        0.0000
     25  O         88.0940   25.5130   16.3840 O.2     1  UNL1        0.0000
     26  O         88.0770   26.1390   14.2810 O.2     1  UNL1        0.0000
     27  C         81.8010   29.2180   20.0050 C.1     1  UNL1        0.0000
     28  N         82.1570   30.3120   20.1600 N.1     1  UNL1        0.0000
@<TRIPOS>BOND
     1     1    20    1
     2     1     2   am
     3     1     9    2
     4     2    10    1
     5     2     3    1
     6     3     4   ar
     7     3     8   ar
     8     4     5   ar
     9     5    11    1
    10     5     6   ar
    11     6     7   ar
    12     6    12    1
    13     7     8   ar
    14     7    13    1
    15     8    27    1
    16    14    15    1
    17    15    16   ar
    18    15    20   ar
    19    16    21    1
    20    16    17   ar
    21    17    22    1
    22    17    18   ar
    23    18    24    1
    24    18    19   ar
    25    19    20   ar
    26    19    23    1
    27    24    26    2
    28    24    25    2
    29    27    28    3
