@<TRIPOS>MOLECULE
UNL
 35 36 0 0 0
SMALL
GASTEIGER

@<TRIPOS>ATOM
      1  C         88.9960   24.6460   14.1280 C.ar    1  UNL1        0.0000
      2  C         89.6280   24.6740   12.8880 C.ar    1  UNL1        0.0000
      3  C         90.4310   23.6060   12.4650 C.ar    1  UNL1        0.0000
      4  C         90.6130   22.4870   13.2760 C.ar    1  UNL1        0.0000
      5  C         90.0520   22.4970   14.5580 C.ar    1  UNL1        0.0000
      6  C         89.2540   23.5690   14.9820 C.ar    1  UNL1        0.0000
      7  H         89.5050   25.4930   12.2710 H       1  UNL1        0.0000
      8  H         90.8920   23.6470   11.5430 H       1  UNL1        0.0000
      9  H         90.2290   21.7070   15.1990 H       1  UNL1        0.0000
     10  H         88.8520   23.5630   15.9320 H       1  UNL1        0.0000
     11  C         87.7410   25.9270   15.8710 C.2     1  UNL1        0.0000
     12  N         88.0720   25.6230   14.5630 N.am    1  UNL1        0.0000
     13  O         88.1240   25.3320   16.8740 O.2     1  UNL1        0.0000
     14  H         87.6170   26.1420   13.8610 H       1  UNL1        0.0000
     15 CL         88.8050   28.9660   16.0790 Cl      1  UNL1        0.0000
     16  C         87.1700   28.4150   16.1730 C.ar    1  UNL1        0.0000
     17  C         86.1920   29.4000   16.3800 C.ar    1  UNL1        0.0000
     18  C         84.8450   29.0550   16.5070 C.ar    1  UNL1        0.0000
     19  C         84.4730   27.7080   16.4420 C.ar    1  UNL1        0.0000
     20  C         85.4420   26.7150   16.2440 C.ar    1  UNL1        0.0000
     21  C         86.7980   27.0640   16.0850 C.ar    1  UNL1        0.0000
     22  H         86.4710   30.3920   16.4390 H       1  UNL1        0.0000
     23  H         84.1300   29.7860   16.6480 H       1  UNL1        0.0000
     24  H         85.1590   25.7230   16.2130 H       1  UNL1        0.0000
     25  N         83.0580   27.3370   16.5690 N.pl3   1  UNL1        0.0000
     26  O         82.2600   28.2280   16.8900 O.2     1  UNL1        0.0000
     27  O         82.7460   26.1620   16.3350 O.2     1  UNL1        0.0000
     28  N         91.2900   21.3190   12.8630 N.am    1  UNL1        0.0000
     29  C         90.7170   20.1200   12.4700 C.2     1  UNL1        0.0000
     30  O         89.5230   19.8830   12.3270 O.2     1  UNL1        0.0000
     31  H         92.2740   21.3600   12.8520 H       1  UNL1        0.0000
     32  C         91.7340   19.0240   12.2670 C.3     1  UNL1        0.0000
     33  H         91.7030   18.3500   13.0970 H       1  UNL1        0.0000
     34  H         92.7100   19.4530   12.1910 H       1  UNL1        0.0000
     35  H         91.5080   18.4900   11.3670 H       1  UNL1        0.0000
@<TRIPOS>BOND
     1     1     2   ar
     2     1    12    1
     3     1     6   ar
     4     2     7    1
     5     2     3   ar
     6     3     8    1
     7     3     4   ar
     8     4    28    1
     9     4     5   ar
    10     5     6   ar
    11     5     9    1
    12     6    10    1
    13    11    12   am
    14    11    21    1
    15    11    13    2
    16    12    14    1
    17    15    16    1
    18    16    21   ar
    19    16    17   ar
    20    17    22    1
    21    17    18   ar
    22    18    19   ar
    23    18    23    1
    24    19    20   ar
    25    19    25    1
    26    20    21   ar
    27    20    24    1
    28    25    27    2
    29    25    26    2
    30    28    29   am
    31    28    31    1
    32    29    32    1
    33    29    30    2
    34    32    35    1
    35    32    34    1
    36    32    33    1
