@<TRIPOS>MOLECULE
UNL
 29 30 0 0 0
SMALL
GASTEIGER

@<TRIPOS>ATOM
      1  C         84.2720   27.9530   18.0940 C.2     1  UNL1        0.0000
      2  N         84.3810   28.8330   19.1520 N.am    1  UNL1        0.0000
      3  O         83.4780   27.0200   18.0200 O.2     1  UNL1        0.0000
      4  H         85.0770   29.5270   19.0840 H       1  UNL1        0.0000
      5 CL         84.3800   30.7180   16.3820 Cl      1  UNL1        0.0000
      6  C         85.3490   29.3020   16.1740 C.ar    1  UNL1        0.0000
      7  C         86.2970   29.3510   15.1370 C.ar    1  UNL1        0.0000
      8  C         87.1060   28.2500   14.8550 C.ar    1  UNL1        0.0000
      9  C         86.9570   27.0800   15.6060 C.ar    1  UNL1        0.0000
     10  C         86.0150   27.0180   16.6380 C.ar    1  UNL1        0.0000
     11  C         85.2130   28.1380   16.9470 C.ar    1  UNL1        0.0000
     12  H         86.3950   30.2120   14.5770 H       1  UNL1        0.0000
     13  H         87.8070   28.2970   14.0990 H       1  UNL1        0.0000
     14  H         85.9050   26.1460   17.1790 H       1  UNL1        0.0000
     15  N         87.8050   25.9140   15.3190 N.pl3   1  UNL1        0.0000
     16  O         88.1310   25.1960   16.2740 O.2     1  UNL1        0.0000
     17  O         88.1340   25.7170   14.1440 O.2     1  UNL1        0.0000
     18  C         83.5930   28.8370   20.3240 C.ar    1  UNL1        0.0000
     19  C         83.8760   28.0540   21.4460 C.ar    1  UNL1        0.0000
     20  C         83.0030   28.0330   22.5370 C.ar    1  UNL1        0.0000
     21  C         81.8480   28.8020   22.5020 C.ar    1  UNL1        0.0000
     22  C         81.5830   29.6370   21.4240 C.ar    1  UNL1        0.0000
     23  C         82.4620   29.6620   20.3390 C.ar    1  UNL1        0.0000
     24  H         84.7370   27.4840   21.4680 H       1  UNL1        0.0000
     25  H         83.2150   27.4500   23.3620 H       1  UNL1        0.0000
     26  H         80.7420   30.2340   21.4250 H       1  UNL1        0.0000
     27  H         82.2770   30.2930   19.5420 H       1  UNL1        0.0000
     28  O         80.9350   28.7530   23.5120 O.3     1  UNL1        0.0000
     29  H         80.0790   29.1160   23.3890 H       1  UNL1        0.0000
@<TRIPOS>BOND
     1     1    11    1
     2     1     3    2
     3     1     2   am
     4     2     4    1
     5     2    18    1
     6     5     6    1
     7     6     7   ar
     8     6    11   ar
     9     7    12    1
    10     7     8   ar
    11     8    13    1
    12     8     9   ar
    13     9    15    1
    14     9    10   ar
    15    10    11   ar
    16    10    14    1
    17    15    17    2
    18    15    16    2
    19    18    23   ar
    20    18    19   ar
    21    19    24    1
    22    19    20   ar
    23    20    21   ar
    24    20    25    1
    25    21    22   ar
    26    21    28    1
    27    22    23   ar
    28    22    26    1
    29    23    27    1
    30    28    29    1
