@<TRIPOS>MOLECULE
UNL
 31 32 0 0 0
SMALL
GASTEIGER

@<TRIPOS>ATOM
      1  C         83.7870   28.3390   19.0160 C.2     1  UNL1        0.0000
      2  N         83.0900   27.1560   18.9190 N.am    1  UNL1        0.0000
      3  O         83.9300   29.0310   20.0180 O.2     1  UNL1        0.0000
      4  H         83.1750   26.6620   18.0720 H       1  UNL1        0.0000
      5 CL         82.8920   31.0540   17.6350 Cl      1  UNL1        0.0000
      6  C         84.1640   30.0030   17.1320 C.ar    1  UNL1        0.0000
      7  C         84.9400   30.4240   16.0440 C.ar    1  UNL1        0.0000
      8  C         86.0340   29.6650   15.6150 C.ar    1  UNL1        0.0000
      9  C         86.3470   28.4720   16.2770 C.ar    1  UNL1        0.0000
     10  C         85.5740   28.0370   17.3590 C.ar    1  UNL1        0.0000
     11  C         84.4760   28.8040   17.7880 C.ar    1  UNL1        0.0000
     12  H         84.7030   31.3010   15.5540 H       1  UNL1        0.0000
     13  H         86.6050   29.9820   14.8160 H       1  UNL1        0.0000
     14  H         85.8090   27.1560   17.8410 H       1  UNL1        0.0000
     15  N         87.5080   27.6840   15.8460 N.pl3   1  UNL1        0.0000
     16  O         87.9730   26.8640   16.6500 O.2     1  UNL1        0.0000
     17  O         87.9540   27.8930   14.7100 O.2     1  UNL1        0.0000
     18  C         82.2610   26.5750   19.9110 C.ar    1  UNL1        0.0000
     19  C         82.7470   25.8020   20.9650 C.ar    1  UNL1        0.0000
     20  C         81.8470   25.2840   21.8840 C.ar    1  UNL1        0.0000
     21  N         80.5120   25.4800   21.8290 N.ar    1  UNL1        0.0000
     22  C         80.0570   26.2280   20.7990 C.ar    1  UNL1        0.0000
     23  C         80.8810   26.8030   19.8410 C.ar    1  UNL1        0.0000
     24  H         83.7590   25.6200   21.0590 H       1  UNL1        0.0000
     25  H         82.2200   24.7130   22.6580 H       1  UNL1        0.0000
     26  H         79.0400   26.3790   20.7190 H       1  UNL1        0.0000
     27  O         80.3270   27.5000   18.8000 O.3     1  UNL1        0.0000
     28  C         79.3720   26.7130   18.0850 C.3     1  UNL1        0.0000
     29  H         78.9800   25.9570   18.7320 H       1  UNL1        0.0000
     30  H         79.8460   26.2540   17.2440 H       1  UNL1        0.0000
     31  H         78.5750   27.3420   17.7460 H       1  UNL1        0.0000
@<TRIPOS>BOND
     1     1    11    1
     2     1     2   am
     3     1     3    2
     4     2     4    1
     5     2    18    1
     6     5     6    1
     7     6     7   ar
     8     6    11   ar
     9     7    12    1
    10     7     8   ar
    11     8    13    1
    12     8     9   ar
    13     9    15    1
    14     9    10   ar
    15    10    11   ar
    16    10    14    1
    17    15    17    2
    18    15    16    2
    19    18    23   ar
    20    18    19   ar
    21    19    24    1
    22    19    20   ar
    23    20    21   ar
    24    20    25    1
    25    21    22   ar
    26    22    23   ar
    27    22    26    1
    28    23    27    1
    29    27    28    1
    30    28    30    1
    31    28    31    1
    32    28    29    1
