@<TRIPOS>MOLECULE
UNL
 46 49 0 0 0
SMALL
GASTEIGER

@<TRIPOS>ATOM
      1  C         86.1410   28.4190   16.1890 C.ar    1  UNL1        0.0000
      2  C         85.2590   28.1850   17.2550 C.ar    1  UNL1        0.0000
      3  C         84.3370   29.1790   17.6070 C.ar    1  UNL1        0.0000
      4  N         83.4120   29.2200   18.6140 N.ar    1  UNL1        0.0000
      5  C         82.8600   30.4130   18.4910 C.ar    1  UNL1        0.0000
      6  O         83.3490   31.1600   17.4430 O.2     1  UNL1        0.0000
      7  C         84.3050   30.3570   16.8850 C.ar    1  UNL1        0.0000
      8  C         85.1310   30.6340   15.8030 C.ar    1  UNL1        0.0000
      9  C         86.0650   29.6320   15.4770 C.ar    1  UNL1        0.0000
     10  H         85.2890   27.2920   17.7740 H       1  UNL1        0.0000
     11  H         85.0650   31.5160   15.2730 H       1  UNL1        0.0000
     12  H         86.7140   29.7900   14.6900 H       1  UNL1        0.0000
     13  C         81.8330   31.0220   19.3320 C.ar    1  UNL1        0.0000
     14  C         80.9180   30.1980   20.0070 C.ar    1  UNL1        0.0000
     15  C         79.9310   30.7410   20.8340 C.ar    1  UNL1        0.0000
     16  C         79.8330   32.1260   21.0040 C.ar    1  UNL1        0.0000
     17  C         80.7480   32.9540   20.3410 C.ar    1  UNL1        0.0000
     18  C         81.7350   32.4070   19.5110 C.ar    1  UNL1        0.0000
     19  H         80.9750   29.1740   19.8900 H       1  UNL1        0.0000
     20  H         79.2690   30.1160   21.3230 H       1  UNL1        0.0000
     21  H         80.6940   33.9770   20.4660 H       1  UNL1        0.0000
     22  H         82.3980   33.0330   19.0270 H       1  UNL1        0.0000
     23  C         78.7710   32.7170   21.8960 C.3     1  UNL1        0.0000
     24  H         77.8550   32.1880   21.7370 H       1  UNL1        0.0000
     25  H         78.6750   33.7530   21.6460 H       1  UNL1        0.0000
     26  C         79.1370   32.6280   23.3700 C.3     1  UNL1        0.0000
     27  H         78.2650   32.8070   23.9650 H       1  UNL1        0.0000
     28  H         79.8810   33.3620   23.5980 H       1  UNL1        0.0000
     29  H         79.5210   31.6530   23.5840 H       1  UNL1        0.0000
     30  C         87.0660   26.5010   14.8820 C.2     1  UNL1        0.0000
     31  N         87.1640   27.5050   15.8320 N.am    1  UNL1        0.0000
     32  O         86.1540   26.3780   14.0680 O.2     1  UNL1        0.0000
     33  H         88.0240   27.5930   16.3020 H       1  UNL1        0.0000
     34 CL         88.1310   25.1080   17.6100 Cl      1  UNL1        0.0000
     35  C         88.6210   24.7660   15.9880 C.ar    1  UNL1        0.0000
     36  C         89.5920   23.7630   15.8290 C.ar    1  UNL1        0.0000
     37  C         90.0680   23.4200   14.5600 C.ar    1  UNL1        0.0000
     38  C         89.5820   24.0990   13.4390 C.ar    1  UNL1        0.0000
     39  C         88.6280   25.1130   13.5890 C.ar    1  UNL1        0.0000
     40  C         88.1220   25.4440   14.8670 C.ar    1  UNL1        0.0000
     41  H         89.9580   23.2730   16.6600 H       1  UNL1        0.0000
     42  H         90.7720   22.6730   14.4530 H       1  UNL1        0.0000
     43  H         88.2920   25.6240   12.7590 H       1  UNL1        0.0000
     44  N         90.0530   23.7240   12.0990 N.pl3   1  UNL1        0.0000
     45  O         89.2190   23.2560   11.3090 O.2     1  UNL1        0.0000
     46  O         91.2470   23.9090   11.8340 O.2     1  UNL1        0.0000
@<TRIPOS>BOND
     1     1     9   ar
     2     1    31    1
     3     1     2   ar
     4     2     3   ar
     5     2    10    1
     6     3     7   ar
     7     3     4   ar
     8     4     5   ar
     9     5     6   ar
    10     5    13    1
    11     6     7   ar
    12     7     8   ar
    13     8    11    1
    14     8     9   ar
    15     9    12    1
    16    13    18   ar
    17    13    14   ar
    18    14    19    1
    19    14    15   ar
    20    15    16   ar
    21    15    20    1
    22    16    17   ar
    23    16    23    1
    24    17    18   ar
    25    17    21    1
    26    18    22    1
    27    23    25    1
    28    23    24    1
    29    23    26    1
    30    26    29    1
    31    26    28    1
    32    26    27    1
    33    30    32    2
    34    30    40    1
    35    30    31   am
    36    31    33    1
    37    34    35    1
    38    35    40   ar
    39    35    36   ar
    40    36    37   ar
    41    36    41    1
    42    37    38   ar
    43    37    42    1
    44    38    44    1
    45    38    39   ar
    46    39    43    1
    47    39    40   ar
    48    44    45    2
    49    44    46    2
