@<TRIPOS>MOLECULE
UNL
 46 49 0 0 0
SMALL
GASTEIGER

@<TRIPOS>ATOM
      1  C         84.7300   28.5360   16.7430 C.ar    1  UNL1        0.0000
      2  C         85.1390   27.1940   16.7270 C.ar    1  UNL1        0.0000
      3  C         86.2800   26.8440   15.9950 C.ar    1  UNL1        0.0000
      4  N         86.8600   25.6230   15.7810 N.ar    1  UNL1        0.0000
      5  C         87.8790   25.8900   14.9850 C.ar    1  UNL1        0.0000
      6  O         88.0260   27.2210   14.6730 O.2     1  UNL1        0.0000
      7  C         86.9860   27.8270   15.3250 C.ar    1  UNL1        0.0000
      8  C         86.6460   29.1730   15.3310 C.ar    1  UNL1        0.0000
      9  C         85.4850   29.5040   16.0530 C.ar    1  UNL1        0.0000
     10  H         84.6090   26.4770   17.2460 H       1  UNL1        0.0000
     11  H         87.2090   29.8840   14.8370 H       1  UNL1        0.0000
     12  H         85.1770   30.4890   16.0780 H       1  UNL1        0.0000
     13  C         88.8320   24.9500   14.4020 C.ar    1  UNL1        0.0000
     14  C         89.3370   25.1990   13.1160 C.ar    1  UNL1        0.0000
     15  C         90.2600   24.3350   12.5220 C.ar    1  UNL1        0.0000
     16  C         90.6960   23.1930   13.2050 C.ar    1  UNL1        0.0000
     17  C         90.2060   22.9450   14.4920 C.ar    1  UNL1        0.0000
     18  C         89.2800   23.8120   15.0840 C.ar    1  UNL1        0.0000
     19  H         89.0230   26.0360   12.6000 H       1  UNL1        0.0000
     20  H         90.6210   24.5380   11.5780 H       1  UNL1        0.0000
     21  H         90.5290   22.1130   15.0110 H       1  UNL1        0.0000
     22  H         88.9230   23.6110   16.0310 H       1  UNL1        0.0000
     23  C         91.6960   22.2600   12.5700 C.3     1  UNL1        0.0000
     24  H         92.1100   22.7370   11.7060 H       1  UNL1        0.0000
     25  H         91.1820   21.3590   12.3080 H       1  UNL1        0.0000
     26  C         92.8280   21.8930   13.5170 C.3     1  UNL1        0.0000
     27  H         93.5750   21.3450   12.9820 H       1  UNL1        0.0000
     28  H         92.4450   21.2920   14.3140 H       1  UNL1        0.0000
     29  H         93.2600   22.7860   13.9180 H       1  UNL1        0.0000
     30  C         83.3000   28.9930   18.7400 C.2     1  UNL1        0.0000
     31  N         83.5380   28.9580   17.3780 N.am    1  UNL1        0.0000
     32  O         84.1500   28.8430   19.6130 O.2     1  UNL1        0.0000
     33  H         82.8050   29.2570   16.7910 H       1  UNL1        0.0000
     34 BR         82.0790   32.0870   19.3630 Br      1  UNL1        0.0000
     35  C         81.2350   30.3880   19.4440 C.ar    1  UNL1        0.0000
     36  C         79.8820   30.3970   19.8250 C.ar    1  UNL1        0.0000
     37  C         79.1670   29.2060   19.9680 C.ar    1  UNL1        0.0000
     38  C         79.8130   27.9880   19.7410 C.ar    1  UNL1        0.0000
     39  C         81.1630   27.9660   19.3660 C.ar    1  UNL1        0.0000
     40  C         81.8850   29.1690   19.1940 C.ar    1  UNL1        0.0000
     41  H         79.4100   31.2980   20.0020 H       1  UNL1        0.0000
     42  H         78.1710   29.2250   20.2370 H       1  UNL1        0.0000
     43  H         81.6340   27.0610   19.2130 H       1  UNL1        0.0000
     44  N         79.0680   26.7300   19.8790 N.pl3   1  UNL1        0.0000
     45  O         78.7740   26.1220   18.8400 O.2     1  UNL1        0.0000
     46  O         78.7860   26.3480   21.0220 O.2     1  UNL1        0.0000
@<TRIPOS>BOND
     1     1     9   ar
     2     1     2   ar
     3     1    31    1
     4     2     3   ar
     5     2    10    1
     6     3     7   ar
     7     3     4   ar
     8     4     5   ar
     9     5    13    1
    10     5     6   ar
    11     6     7   ar
    12     7     8   ar
    13     8    11    1
    14     8     9   ar
    15     9    12    1
    16    13    14   ar
    17    13    18   ar
    18    14    15   ar
    19    14    19    1
    20    15    20    1
    21    15    16   ar
    22    16    23    1
    23    16    17   ar
    24    17    21    1
    25    17    18   ar
    26    18    22    1
    27    23    24    1
    28    23    25    1
    29    23    26    1
    30    26    27    1
    31    26    29    1
    32    26    28    1
    33    30    31   am
    34    30    40    1
    35    30    32    2
    36    31    33    1
    37    34    35    1
    38    35    40   ar
    39    35    36   ar
    40    36    37   ar
    41    36    41    1
    42    37    38   ar
    43    37    42    1
    44    38    39   ar
    45    38    44    1
    46    39    40   ar
    47    39    43    1
    48    44    45    2
    49    44    46    2
