@<TRIPOS>MOLECULE
UNL
 43 46 0 0 0
SMALL
GASTEIGER

@<TRIPOS>ATOM
      1  C         85.2550   28.1040   17.7760 C.ar    1  UNL1        0.0000
      2  C         86.4550   27.3830   17.8640 C.ar    1  UNL1        0.0000
      3  C         86.9270   26.7150   16.7280 C.ar    1  UNL1        0.0000
      4  N         88.0300   25.9250   16.5530 N.ar    1  UNL1        0.0000
      5  C         87.9500   25.5450   15.2900 C.ar    1  UNL1        0.0000
      6  O         86.8660   26.0480   14.6110 O.2     1  UNL1        0.0000
      7  C         86.2120   26.7960   15.5470 C.ar    1  UNL1        0.0000
      8  C         85.0320   27.5130   15.3960 C.ar    1  UNL1        0.0000
      9  C         84.5620   28.1610   16.5520 C.ar    1  UNL1        0.0000
     10  H         86.9810   27.3480   18.7510 H       1  UNL1        0.0000
     11  H         84.5330   27.5660   14.4940 H       1  UNL1        0.0000
     12  H         83.6810   28.6960   16.5010 H       1  UNL1        0.0000
     13  C         88.8550   24.6620   14.5590 C.ar    1  UNL1        0.0000
     14  C         89.3290   23.5010   15.1890 C.ar    1  UNL1        0.0000
     15  C         90.1930   22.6240   14.5280 C.ar    1  UNL1        0.0000
     16  C         90.6040   22.8910   13.2180 C.ar    1  UNL1        0.0000
     17  C         90.1260   24.0430   12.5790 C.ar    1  UNL1        0.0000
     18  C         89.2620   24.9210   13.2450 C.ar    1  UNL1        0.0000
     19  H         89.0350   23.2920   16.1550 H       1  UNL1        0.0000
     20  H         90.5260   21.7730   15.0080 H       1  UNL1        0.0000
     21  H         90.4130   24.2440   11.6090 H       1  UNL1        0.0000
     22  H         88.9220   25.7670   12.7620 H       1  UNL1        0.0000
     23  C         91.5290   21.9410   12.5030 C.3     1  UNL1        0.0000
     24  H         92.3040   21.6400   13.1760 H       1  UNL1        0.0000
     25  H         91.9320   22.4510   11.6520 H       1  UNL1        0.0000
     26  C         90.8010   20.7020   12.0080 C.3     1  UNL1        0.0000
     27  H         90.8900   20.6360   10.9440 H       1  UNL1        0.0000
     28  H         89.7660   20.7650   12.2760 H       1  UNL1        0.0000
     29  H         91.2320   19.8310   12.4570 H       1  UNL1        0.0000
     30  C         83.6030   28.2550   19.6440 C.2     1  UNL1        0.0000
     31  N         84.6590   28.7390   18.8910 N.am    1  UNL1        0.0000
     32  O         83.1470   27.1170   19.5790 O.2     1  UNL1        0.0000
     33  H         85.0320   29.6100   19.1570 H       1  UNL1        0.0000
     34 CL         82.2220   31.0260   18.6340 Cl      1  UNL1        0.0000
     35  C         82.2840   30.3770   20.2290 C.ar    1  UNL1        0.0000
     36  N         81.6400   31.1810   21.1150 N.ar    1  UNL1        0.0000
     37  C         81.6500   30.8000   22.4100 C.ar    1  UNL1        0.0000
     38  C         82.2770   29.6570   22.8650 C.ar    1  UNL1        0.0000
     39  C         82.9230   28.8500   21.9330 C.ar    1  UNL1        0.0000
     40  C         82.9260   29.1970   20.5720 C.ar    1  UNL1        0.0000
     41  H         81.1630   31.3970   23.0970 H       1  UNL1        0.0000
     42  H         82.2670   29.4090   23.8680 H       1  UNL1        0.0000
     43  H         83.4030   27.9910   22.2440 H       1  UNL1        0.0000
@<TRIPOS>BOND
     1     1     9   ar
     2     1     2   ar
     3     1    31    1
     4     2     3   ar
     5     2    10    1
     6     3     7   ar
     7     3     4   ar
     8     4     5   ar
     9     5    13    1
    10     5     6   ar
    11     6     7   ar
    12     7     8   ar
    13     8    11    1
    14     8     9   ar
    15     9    12    1
    16    13    18   ar
    17    13    14   ar
    18    14    15   ar
    19    14    19    1
    20    15    16   ar
    21    15    20    1
    22    16    23    1
    23    16    17   ar
    24    17    21    1
    25    17    18   ar
    26    18    22    1
    27    23    25    1
    28    23    26    1
    29    23    24    1
    30    26    27    1
    31    26    28    1
    32    26    29    1
    33    30    31   am
    34    30    32    2
    35    30    40    1
    36    31    33    1
    37    34    35    1
    38    35    40   ar
    39    35    36   ar
    40    36    37   ar
    41    37    38   ar
    42    37    41    1
    43    38    39   ar
    44    38    42    1
    45    39    40   ar
    46    39    43    1
