@<TRIPOS>MOLECULE
UNL
 45 48 0 0 0
SMALL
GASTEIGER

@<TRIPOS>ATOM
      1  C         84.2920   27.7460   18.1120 C.ar    1  UNL1        0.0000
      2  C         85.5660   27.1670   18.2780 C.ar    1  UNL1        0.0000
      3  C         86.1460   26.4990   17.1830 C.ar    1  UNL1        0.0000
      4  N         87.3720   25.8920   17.0100 N.ar    1  UNL1        0.0000
      5  C         87.3780   25.5410   15.7330 C.ar    1  UNL1        0.0000
      6  O         86.2020   25.8050   15.0750 O.2     1  UNL1        0.0000
      7  C         85.4300   26.4250   16.0020 C.ar    1  UNL1        0.0000
      8  C         84.1570   26.9290   15.8020 C.ar    1  UNL1        0.0000
      9  C         83.5970   27.5930   16.8970 C.ar    1  UNL1        0.0000
     10  H         86.0610   27.2300   19.1810 H       1  UNL1        0.0000
     11  H         83.6560   26.8230   14.9070 H       1  UNL1        0.0000
     12  H         82.6460   27.9810   16.8120 H       1  UNL1        0.0000
     13  C         88.4450   25.0050   14.8910 C.ar    1  UNL1        0.0000
     14  C         88.8060   25.6100   13.6860 C.ar    1  UNL1        0.0000
     15  C         89.7750   25.0250   12.8560 C.ar    1  UNL1        0.0000
     16  C         90.4030   23.8180   13.2070 C.ar    1  UNL1        0.0000
     17  C         90.0540   23.2250   14.4230 C.ar    1  UNL1        0.0000
     18  C         89.0980   23.8160   15.2540 C.ar    1  UNL1        0.0000
     19  H         88.3560   26.4940   13.4030 H       1  UNL1        0.0000
     20  H         90.0330   25.4910   11.9710 H       1  UNL1        0.0000
     21  H         90.5070   22.3420   14.7110 H       1  UNL1        0.0000
     22  H         88.8650   23.3680   16.1540 H       1  UNL1        0.0000
     23  C         91.3240   23.1410   12.2170 C.3     1  UNL1        0.0000
     24  H         91.8530   23.9080   11.6890 H       1  UNL1        0.0000
     25  H         90.6880   22.5390   11.6020 H       1  UNL1        0.0000
     26  C         92.3570   22.1800   12.7950 C.3     1  UNL1        0.0000
     27  H         92.0550   21.1720   12.6020 H       1  UNL1        0.0000
     28  H         92.4340   22.3320   13.8520 H       1  UNL1        0.0000
     29  H         93.3080   22.3620   12.3390 H       1  UNL1        0.0000
     30  C         82.9870   28.1010   20.2230 C.2     1  UNL1        0.0000
     31  N         83.6370   28.5310   19.0890 N.am    1  UNL1        0.0000
     32  O         82.8430   26.9260   20.5420 O.2     1  UNL1        0.0000
     33  H         83.6460   29.5040   18.9390 H       1  UNL1        0.0000
     34 CL         82.9280   27.7360   23.5100 Cl      1  UNL1        0.0000
     35  C         82.4030   29.0900   22.5680 C.ar    1  UNL1        0.0000
     36  C         81.8980   30.1700   23.3110 C.ar    1  UNL1        0.0000
     37  C         81.4360   31.3230   22.6750 C.ar    1  UNL1        0.0000
     38  C         81.4600   31.4010   21.2820 C.ar    1  UNL1        0.0000
     39  C         81.9610   30.3260   20.5410 C.ar    1  UNL1        0.0000
     40  C         82.4520   29.1550   21.1630 C.ar    1  UNL1        0.0000
     41  H         81.8700   30.1120   24.3410 H       1  UNL1        0.0000
     42  H         81.0760   32.1130   23.2320 H       1  UNL1        0.0000
     43  H         81.9720   30.3890   19.5120 H       1  UNL1        0.0000
     44  C         80.9770   32.5770   20.6230 C.1     1  UNL1        0.0000
     45  N         80.5790   33.5220   20.0850 N.1     1  UNL1        0.0000
@<TRIPOS>BOND
     1     1     9   ar
     2     1     2   ar
     3     1    31    1
     4     2     3   ar
     5     2    10    1
     6     3     7   ar
     7     3     4   ar
     8     4     5   ar
     9     5    13    1
    10     5     6   ar
    11     6     7   ar
    12     7     8   ar
    13     8    11    1
    14     8     9   ar
    15     9    12    1
    16    13    14   ar
    17    13    18   ar
    18    14    15   ar
    19    14    19    1
    20    15    20    1
    21    15    16   ar
    22    16    23    1
    23    16    17   ar
    24    17    21    1
    25    17    18   ar
    26    18    22    1
    27    23    25    1
    28    23    24    1
    29    23    26    1
    30    26    29    1
    31    26    27    1
    32    26    28    1
    33    30    31   am
    34    30    32    2
    35    30    40    1
    36    31    33    1
    37    34    35    1
    38    35    40   ar
    39    35    36   ar
    40    36    37   ar
    41    36    41    1
    42    37    38   ar
    43    37    42    1
    44    38    39   ar
    45    38    44    1
    46    39    43    1
    47    39    40   ar
    48    44    45    3
