@<TRIPOS>MOLECULE
UNL
 51 54 0 0 0
SMALL
GASTEIGER

@<TRIPOS>ATOM
      1  C         86.4770   25.7830   15.9180 C.ar    1  UNL1        0.0000
      2  C         86.5060   26.4050   17.1750 C.ar    1  UNL1        0.0000
      3  C         85.3640   27.0910   17.6130 C.ar    1  UNL1        0.0000
      4  N         85.1510   27.8440   18.7360 N.ar    1  UNL1        0.0000
      5  C         83.9320   28.3260   18.5700 C.ar    1  UNL1        0.0000
      6  O         83.2950   27.8810   17.4360 O.2     1  UNL1        0.0000
      7  C         84.2330   27.1030   16.8170 C.ar    1  UNL1        0.0000
      8  C         84.1300   26.4590   15.5930 C.ar    1  UNL1        0.0000
      9  C         85.2950   25.8070   15.1530 C.ar    1  UNL1        0.0000
     10  H         87.3500   26.3590   17.7660 H       1  UNL1        0.0000
     11  H         83.2570   26.4590   15.0420 H       1  UNL1        0.0000
     12  H         85.2830   25.3290   14.2380 H       1  UNL1        0.0000
     13  C         83.2490   29.3370   19.3750 C.ar    1  UNL1        0.0000
     14  C         82.7120   30.4630   18.7350 C.ar    1  UNL1        0.0000
     15  C         81.9670   31.4100   19.4430 C.ar    1  UNL1        0.0000
     16  C         81.7510   31.2550   20.8150 C.ar    1  UNL1        0.0000
     17  C         82.3010   30.1440   21.4660 C.ar    1  UNL1        0.0000
     18  C         83.0470   29.1960   20.7550 C.ar    1  UNL1        0.0000
     19  H         82.8690   30.5950   17.7230 H       1  UNL1        0.0000
     20  H         81.5760   32.2280   18.9500 H       1  UNL1        0.0000
     21  H         82.1570   30.0240   22.4810 H       1  UNL1        0.0000
     22  H         83.4500   28.3860   21.2500 H       1  UNL1        0.0000
     23  C         80.8960   32.2460   21.5640 C.3     1  UNL1        0.0000
     24  H         81.4480   32.6140   22.4040 H       1  UNL1        0.0000
     25  H         80.0050   31.7450   21.8800 H       1  UNL1        0.0000
     26  C         80.4920   33.4220   20.6870 C.3     1  UNL1        0.0000
     27  H         79.6000   33.1770   20.1500 H       1  UNL1        0.0000
     28  H         81.2780   33.6360   19.9940 H       1  UNL1        0.0000
     29  H         80.3140   34.2810   21.3000 H       1  UNL1        0.0000
     30  C         88.3600   25.6410   14.2670 C.2     1  UNL1        0.0000
     31  N         87.6120   25.1750   15.3330 N.am    1  UNL1        0.0000
     32  O         88.2420   26.7490   13.7490 O.2     1  UNL1        0.0000
     33  H         87.9050   24.3220   15.7310 H       1  UNL1        0.0000
     34 CL         90.3160   26.5540   11.8280 Cl      1  UNL1        0.0000
     35  C         90.2610   25.0240   12.6310 C.ar    1  UNL1        0.0000
     36  C         91.1760   24.0660   12.1820 C.ar    1  UNL1        0.0000
     37  C         91.2000   22.7880   12.7460 C.ar    1  UNL1        0.0000
     38  C         90.3050   22.4360   13.7630 C.ar    1  UNL1        0.0000
     39  C         89.3890   23.3980   14.2080 C.ar    1  UNL1        0.0000
     40  C         89.3610   24.7060   13.6590 C.ar    1  UNL1        0.0000
     41  H         91.8390   24.3050   11.4290 H       1  UNL1        0.0000
     42  H         91.8860   22.0950   12.4090 H       1  UNL1        0.0000
     43  H         88.7190   23.1500   14.9520 H       1  UNL1        0.0000
     44  C         90.4220   21.0540   14.3300 C.2     1  UNL1        0.0000
     45  N         91.4040   20.8080   15.2660 N.am    1  UNL1        0.0000
     46  O         89.6470   20.1860   13.9420 O.2     1  UNL1        0.0000
     47  H         91.9730   21.5500   15.5760 H       1  UNL1        0.0000
     48  C         91.6150   19.4810   15.8000 C.3     1  UNL1        0.0000
     49  H         92.0980   18.8730   15.0640 H       1  UNL1        0.0000
     50  H         90.6710   19.0460   16.0580 H       1  UNL1        0.0000
     51  H         92.2300   19.5410   16.6730 H       1  UNL1        0.0000
@<TRIPOS>BOND
     1     1     9   ar
     2     1    31    1
     3     1     2   ar
     4     2     3   ar
     5     2    10    1
     6     3     7   ar
     7     3     4   ar
     8     4     5   ar
     9     5     6   ar
    10     5    13    1
    11     6     7   ar
    12     7     8   ar
    13     8    11    1
    14     8     9   ar
    15     9    12    1
    16    13    14   ar
    17    13    18   ar
    18    14    19    1
    19    14    15   ar
    20    15    20    1
    21    15    16   ar
    22    16    17   ar
    23    16    23    1
    24    17    18   ar
    25    17    21    1
    26    18    22    1
    27    23    26    1
    28    23    25    1
    29    23    24    1
    30    26    28    1
    31    26    27    1
    32    26    29    1
    33    30    40    1
    34    30    32    2
    35    30    31   am
    36    31    33    1
    37    34    35    1
    38    35    36   ar
    39    35    40   ar
    40    36    41    1
    41    36    37   ar
    42    37    42    1
    43    37    38   ar
    44    38    39   ar
    45    38    44    1
    46    39    40   ar
    47    39    43    1
    48    44    46    2
    49    44    45   am
    50    45    47    1
    51    45    48    1
    52    48    49    1
    53    48    50    1
    54    48    51    1
