@<TRIPOS>MOLECULE
UNL
 36 41 0 0 0
SMALL
GASTEIGER

@<TRIPOS>ATOM
      1  O         80.9690   32.7770   21.5060 O.2     1  UNL1        0.0000
      2  C         81.3880   31.6300   21.5470 C.2     1  UNL1        0.0000
      3  C         81.3640   30.7800   22.7830 C.3     1  UNL1        0.0000
      4  C         81.9660   29.4640   22.3080 C.3     1  UNL1        0.0000
      5  C         82.3310   29.7040   20.8770 C.ar    1  UNL1        0.0000
      6  C         83.0480   28.7690   20.0060 C.ar    1  UNL1        0.0000
      7  C         83.3120   29.2140   18.6970 C.ar    1  UNL1        0.0000
      8  C         84.0620   28.4510   17.8220 C.ar    1  UNL1        0.0000
      9  C         84.5850   27.2480   18.2530 C.ar    1  UNL1        0.0000
     10  C         84.3160   26.7350   19.5090 C.ar    1  UNL1        0.0000
     11  C         83.5130   27.4850   20.3830 C.ar    1  UNL1        0.0000
     12  O         85.3890   26.6230   17.3360 O.3     1  UNL1        0.0000
     13  C         85.5660   27.6130   16.2980 C.3     1  UNL1        0.0000
     14  O         86.8180   28.3320   16.4460 O.3     1  UNL1        0.0000
     15  C         86.5590   29.7300   16.1680 C.3     1  UNL1        0.0000
     16  C         85.0910   29.9560   16.1060 C.3     1  UNL1        0.0000
     17  O         85.8960   30.0010   14.9240 O.3     1  UNL1        0.0000
     18  C         84.4290   28.6620   16.3940 C.3     1  UNL1        0.0000
     19  C         81.9960   30.9160   20.4200 C.ar    1  UNL1        0.0000
     20  C         82.2410   31.3970   19.0680 C.ar    1  UNL1        0.0000
     21  O         82.8550   30.4650   18.2320 O.2     1  UNL1        0.0000
     22  O         81.9440   32.5110   18.6640 O.2     1  UNL1        0.0000
     23  H         80.3630   30.6410   23.1340 H       1  UNL1        0.0000
     24  H         81.8960   31.2150   23.6040 H       1  UNL1        0.0000
     25  H         81.2510   28.6720   22.3860 H       1  UNL1        0.0000
     26  H         82.8110   29.1690   22.8950 H       1  UNL1        0.0000
     27  H         84.6980   25.8220   19.7980 H       1  UNL1        0.0000
     28  H         85.5590   27.0960   15.3620 H       1  UNL1        0.0000
     29  H         87.4180   30.1520   16.6490 H       1  UNL1        0.0000
     30  H         84.3520   30.6210   16.5020 H       1  UNL1        0.0000
     31  H         83.5750   28.6110   15.7520 H       1  UNL1        0.0000
     32  O         83.1960   27.0330   21.6400 O.3     1  UNL1        0.0000
     33  C         82.4310   25.8310   21.6840 C.3     1  UNL1        0.0000
     34  H         82.2140   25.5840   22.7030 H       1  UNL1        0.0000
     35  H         82.9900   25.0360   21.2370 H       1  UNL1        0.0000
     36  H         81.5160   25.9700   21.1480 H       1  UNL1        0.0000
@<TRIPOS>BOND
     1     1     2    2
     2     2    19    1
     3     2     3    1
     4     3     4    1
     5     3    23    1
     6     3    24    1
     7     4     5    1
     8     4    25    1
     9     4    26    1
    10     5     6   ar
    11     5    19   ar
    12     6     7   ar
    13     6    11   ar
    14     7     8   ar
    15     7    21   ar
    16     8    18    1
    17     8     9   ar
    18     9    12    1
    19     9    10   ar
    20    10    27    1
    21    10    11   ar
    22    11    32    1
    23    12    13    1
    24    13    28    1
    25    13    18    1
    26    13    14    1
    27    14    15    1
    28    15    17    1
    29    15    16    1
    30    15    29    1
    31    16    17    1
    32    16    18    1
    33    16    30    1
    34    18    31    1
    35    19    20   ar
    36    20    21   ar
    37    20    22    2
    38    32    33    1
    39    33    36    1
    40    33    35    1
    41    33    34    1
