@<TRIPOS>MOLECULE
UNL
 27 26 0 0 0
SMALL
GASTEIGER

@<TRIPOS>ATOM
      1  C         86.2560   28.7920   14.5800 C.3     1  UNL1        0.0000
      2  H         87.0860   29.1240   13.9910 H       1  UNL1        0.0000
      3  H         85.3220   29.0250   14.1130 H       1  UNL1        0.0000
      4  C         86.3350   27.2700   14.7210 C.3     1  UNL1        0.0000
      5  H         86.4080   27.0220   15.7600 H       1  UNL1        0.0000
      6  H         87.1960   26.9280   14.1860 H       1  UNL1        0.0000
      7  C         85.1030   26.5860   14.1330 C.3     1  UNL1        0.0000
      8  H         85.4000   25.6710   13.6650 H       1  UNL1        0.0000
      9  H         84.6560   27.2440   13.4170 H       1  UNL1        0.0000
     10  C         84.0770   26.2800   15.2240 C.3     1  UNL1        0.0000
     11  H         83.3520   25.5940   14.8370 H       1  UNL1        0.0000
     12  H         83.6110   27.1980   15.5170 H       1  UNL1        0.0000
     13  C         84.7360   25.6670   16.4460 C.3     1  UNL1        0.0000
     14  H         84.7350   26.3760   17.2470 H       1  UNL1        0.0000
     15  H         85.7440   25.3970   16.2110 H       1  UNL1        0.0000
     16  H         84.1930   24.7940   16.7440 H       1  UNL1        0.0000
     17  C         86.2920   29.5160   15.9310 C.3     1  UNL1        0.0000
     18  H         87.0110   30.3040   15.8370 H       1  UNL1        0.0000
     19  C         84.1090   29.5240   17.1430 C.2     1  UNL1        0.0000
     20  C         84.9700   30.1200   16.3020 C.2     1  UNL1        0.0000
     21  H         84.3350   28.5920   17.5230 H       1  UNL1        0.0000
     22  H         84.7100   31.0320   15.8940 H       1  UNL1        0.0000
     23  O         82.7170   31.3940   17.4720 O.2     1  UNL1        0.0000
     24  C         82.8460   30.1790   17.5310 C.2     1  UNL1        0.0000
     25  H         82.0560   29.6010   17.8600 H       1  UNL1        0.0000
     26  O         86.6480   28.5960   16.9550 O.3     1  UNL1        0.0000
     27  H         87.3490   28.9790   17.5050 H       1  UNL1        0.0000
@<TRIPOS>BOND
     1     1     2    1
     2     1     3    1
     3     1     4    1
     4     1    17    1
     5     4     7    1
     6     4     6    1
     7     4     5    1
     8     7     9    1
     9     7     8    1
    10     7    10    1
    11    10    11    1
    12    10    12    1
    13    10    13    1
    14    13    15    1
    15    13    16    1
    16    13    14    1
    17    17    18    1
    18    17    20    1
    19    17    26    1
    20    19    20    2
    21    19    21    1
    22    19    24    1
    23    20    22    1
    24    23    24    2
    25    24    25    1
    26    26    27    1
