@<TRIPOS>MOLECULE
UNL
 8 7 0 0 0
SMALL
GASTEIGER

@<TRIPOS>ATOM
      1 CL         88.1510   28.4630   16.9200 Cl      1  UNL1       -0.0924
      2  C         86.5930   28.5310   16.0500 C.3     1  UNL1        0.2034
      3 CL         86.0930   30.2200   15.8520 Cl      1  UNL1       -0.0924
      4  H         85.8660   28.0010   16.6260 H       1  UNL1        0.0752
      5  C         86.6990   27.8700   14.6810 C.2     1  UNL1        0.3378
      6  O         87.7630   27.0440   14.4990 O.3     1  UNL1       -0.4788
      7  O         85.8810   28.0390   13.7830 O.2     1  UNL1       -0.2480
      8 H          88.3836   26.9202   15.1900 H       1  UNL1        0.2951
@<TRIPOS>BOND
     1     1     2    1
     2     2     5    1
     3     2     3    1
     4     2     4    1
     5     5     7    2
     6     5     6    1
     7     6     8    1
