@<TRIPOS>MOLECULE
UNL
 16 16 0 0 0
SMALL
GASTEIGER

@<TRIPOS>ATOM
      1 CL         83.3220   28.7820   20.2400 Cl      1  UNL1        0.0000
      2  C         84.1990   28.6980   18.7570 C.ar    1  UNL1        0.0000
      3  C         83.8510   29.4180   17.6100 C.ar    1  UNL1        0.0000
      4  C         84.6210   29.3600   16.4380 C.ar    1  UNL1        0.0000
      5  C         85.7600   28.5460   16.4240 C.ar    1  UNL1        0.0000
      6  C         86.1200   27.8080   17.5620 C.ar    1  UNL1        0.0000
      7  C         85.3400   27.8900   18.7230 C.ar    1  UNL1        0.0000
      8  H         84.3530   29.9050   15.6040 H       1  UNL1        0.0000
      9  H         86.9590   27.2070   17.5430 H       1  UNL1        0.0000
     10  H         85.6080   27.3490   19.5590 H       1  UNL1        0.0000
     11  N         82.6750   30.2590   17.5970 N.pl3   1  UNL1        0.0000
     12  O         81.5740   29.6960   17.5800 O.2     1  UNL1        0.0000
     13  O         82.8670   31.4800   17.5380 O.2     1  UNL1        0.0000
     14  N         86.5820   28.4620   15.2100 N.pl3   1  UNL1        0.0000
     15  O         85.9940   28.3040   14.1320 O.2     1  UNL1        0.0000
     16  O         87.8090   28.5520   15.3420 O.2     1  UNL1        0.0000
@<TRIPOS>BOND
     1     1     2    1
     2     2     3   ar
     3     2     7   ar
     4     3     4   ar
     5     3    11    1
     6     4     8    1
     7     4     5   ar
     8     5    14    1
     9     5     6   ar
    10     6     9    1
    11     6     7   ar
    12     7    10    1
    13    11    13    2
    14    11    12    2
    15    14    15    2
    16    14    16    2
