@<TRIPOS>MOLECULE
UNL
 14 14 0 0 0
SMALL
GASTEIGER

@<TRIPOS>ATOM
      1 CL         83.2420   31.0820   17.3420 Cl      1  UNL1        0.0000
      2  C         84.4820   29.9780   16.8630 C.ar    1  UNL1        0.0000
      3  C         84.7200   28.7750   17.5420 C.ar    1  UNL1        0.0000
      4 CL         83.8100   28.3050   18.9340 Cl      1  UNL1        0.0000
      5  C         85.7240   27.9060   17.1010 C.ar    1  UNL1        0.0000
      6  C         86.4890   28.2480   15.9780 C.ar    1  UNL1        0.0000
      7  C         86.2650   29.4570   15.3030 C.ar    1  UNL1        0.0000
      8  C         85.2580   30.3170   15.7490 C.ar    1  UNL1        0.0000
      9  H         85.8990   27.0190   17.5980 H       1  UNL1        0.0000
     10  H         86.8390   29.7080   14.4830 H       1  UNL1        0.0000
     11  H         85.0870   31.2070   15.2550 H       1  UNL1        0.0000
     12  N         87.5280   27.3280   15.4980 N.pl3   1  UNL1        0.0000
     13  O         87.7830   27.3310   14.2870 O.2     1  UNL1        0.0000
     14  O         88.0880   26.6080   16.3360 O.2     1  UNL1        0.0000
@<TRIPOS>BOND
     1     1     2    1
     2     2     8   ar
     3     2     3   ar
     4     3     5   ar
     5     3     4    1
     6     5     6   ar
     7     5     9    1
     8     6     7   ar
     9     6    12    1
    10     7    10    1
    11     7     8   ar
    12     8    11    1
    13    12    13    2
    14    12    14    2
