@<TRIPOS>MOLECULE
UNL
 31 31 0 0 0
SMALL
GASTEIGER

@<TRIPOS>ATOM
      1 CL         84.1500   25.8080   15.4820 Cl      1  UNL1       -0.0782
      2  C         84.3470   27.4870   15.8950 C.ar    1  UNL1        0.1015
      3  C         83.4840   28.0600   16.8670 C.ar    1  UNL1        0.0736
      4 CL         82.1980   27.1040   17.5540 Cl      1  UNL1       -0.0812
      5  C         83.6960   29.3780   17.3100 C.ar    1  UNL1        0.0418
      6  C         84.7520   30.1220   16.7680 C.ar    1  UNL1       -0.0460
      7  C         85.5950   29.5590   15.8090 C.ar    1  UNL1       -0.0177
      8  C         85.3930   28.2540   15.3420 C.ar    1  UNL1        0.1410
      9  H         84.9080   31.0940   17.0800 H       1  UNL1        0.0626
     10  H         86.3830   30.1130   15.4400 H       1  UNL1        0.0655
     11  C         82.7800   30.0480   18.2760 C.2     1  UNL1        0.1901
     12  O         81.9900   30.8880   17.8670 O.2     1  UNL1       -0.2870
     13  C         82.8990   29.7750   19.7540 C.2     1  UNL1       -0.0074
     14  C         82.1220   30.3670   20.6780 C.2     1  UNL1       -0.0919
     15  H         81.3970   31.0410   20.3870 H       1  UNL1        0.0539
     16  H         82.2510   30.1480   21.6780 H       1  UNL1        0.0539
     17  C         83.9700   28.7820   20.1480 C.3     1  UNL1       -0.0274
     18  H         84.9250   29.2590   20.0690 H       1  UNL1        0.0311
     19  H         83.8920   27.9430   19.4890 H       1  UNL1        0.0311
     20  C         83.7970   28.2700   21.5710 C.3     1  UNL1       -0.0612
     21  H         83.4620   27.2530   21.5450 H       1  UNL1        0.0233
     22  H         83.0730   28.8700   22.0810 H       1  UNL1        0.0233
     23  H         84.7330   28.3230   22.0870 H       1  UNL1        0.0233
     24  O         86.3340   27.8900   14.4090 O.3     1  UNL1       -0.4793
     25  C         87.6900   27.7290   14.8390 C.3     1  UNL1        0.1858
     26  H         88.0280   28.6360   15.2920 H       1  UNL1        0.0815
     27  H         88.2980   27.4950   13.9900 H       1  UNL1        0.0815
     28  C         87.7930   26.5940   15.8480 C.2     1  UNL1        0.3427
     29  O         88.1460   27.0030   17.0890 O.3     1  UNL1       -0.4783
     30  O         87.5790   25.4190   15.5810 O.2     1  UNL1       -0.2472
     31 H          88.3020   27.9117   17.2561 H       1  UNL1        0.2952
@<TRIPOS>BOND
     1     1     2    1
     2     2     8   ar
     3     2     3   ar
     4     3     5   ar
     5     3     4    1
     6     5     6   ar
     7     5    11    1
     8     6     7   ar
     9     6     9    1
    10     7     8   ar
    11     7    10    1
    12     8    24    1
    13    11    12    2
    14    11    13    1
    15    13    17    1
    16    13    14    2
    17    14    15    1
    18    14    16    1
    19    17    19    1
    20    17    18    1
    21    17    20    1
    22    20    21    1
    23    20    22    1
    24    20    23    1
    25    24    25    1
    26    25    27    1
    27    25    26    1
    28    25    28    1
    29    28    30    2
    30    28    29    1
    31    29    31    1
