@<TRIPOS>MOLECULE
UNL
 27 29 0 0 0
SMALL
GASTEIGER

@<TRIPOS>ATOM
      1  C         84.9540   20.1600   10.0820 C.3     1  UNL1        0.0000
      2  C         83.9120   20.4170   11.1610 C.3     1  UNL1        0.0000
      3  O         84.2590   19.0880   10.7400 O.3     1  UNL1        0.0000
      4  H         85.1000   20.4760    9.0710 H       1  UNL1        0.0000
      5  H         83.8900   20.9550   12.0860 H       1  UNL1        0.0000
      6  C         86.4100   20.3790   10.4010 C.ar    1  UNL1        0.0000
      7  C         87.0800   19.5910   11.3500 C.ar    1  UNL1        0.0000
      8  C         88.4390   19.7830   11.6220 C.ar    1  UNL1        0.0000
      9  C         89.1540   20.7690   10.9490 C.ar    1  UNL1        0.0000
     10  C         88.5120   21.5640   10.0050 C.ar    1  UNL1        0.0000
     11  C         87.1550   21.3660    9.7340 C.ar    1  UNL1        0.0000
     12  H         86.5620   18.8570   11.8550 H       1  UNL1        0.0000
     13  H         88.9110   19.1920   12.3250 H       1  UNL1        0.0000
     14  H         90.1570   20.9110   11.1500 H       1  UNL1        0.0000
     15  H         89.0370   22.2980    9.5040 H       1  UNL1        0.0000
     16  H         86.6910   21.9580    9.0280 H       1  UNL1        0.0000
     17  C         82.5620   20.9640   10.7800 C.ar    1  UNL1        0.0000
     18  C         81.4120   20.1580   10.7990 C.ar    1  UNL1        0.0000
     19  C         80.1510   20.6790   10.4950 C.ar    1  UNL1        0.0000
     20  C         80.0150   22.0240   10.1640 C.ar    1  UNL1        0.0000
     21  C         81.1390   22.8440   10.1290 C.ar    1  UNL1        0.0000
     22  C         82.3970   22.3170   10.4360 C.ar    1  UNL1        0.0000
     23  H         81.4990   19.1590   11.0420 H       1  UNL1        0.0000
     24  H         79.3210   20.0670   10.5180 H       1  UNL1        0.0000
     25  H         79.0850   22.4120    9.9440 H       1  UNL1        0.0000
     26  H         81.0440   23.8400    9.8780 H       1  UNL1        0.0000
     27  H         83.2220   22.9350   10.4110 H       1  UNL1        0.0000
@<TRIPOS>BOND
     1     1     4    1
     2     1     6    1
     3     1     3    1
     4     1     2    1
     5     2     3    1
     6     2    17    1
     7     2     5    1
     8     6    11   ar
     9     6     7   ar
    10     7     8   ar
    11     7    12    1
    12     8     9   ar
    13     8    13    1
    14     9    10   ar
    15     9    14    1
    16    10    15    1
    17    10    11   ar
    18    11    16    1
    19    17    22   ar
    20    17    18   ar
    21    18    19   ar
    22    18    23    1
    23    19    20   ar
    24    19    24    1
    25    20    25    1
    26    20    21   ar
    27    21    26    1
    28    21    22   ar
    29    22    27    1
