@<TRIPOS>MOLECULE
UNL
 23 24 0 0 0
SMALL
GASTEIGER

@<TRIPOS>ATOM
      1  C         83.9620   29.7460   17.1810 C.ar    1  UNL1        0.0000
      2  C         84.4490   28.5720   17.7650 C.ar    1  UNL1        0.0000
      3  C         85.6990   28.0830   17.3780 C.ar    1  UNL1        0.0000
      4  C         86.4540   28.7480   16.4060 C.ar    1  UNL1        0.0000
      5  C         85.9830   29.9460   15.8670 C.ar    1  UNL1        0.0000
      6  C         84.7310   30.4450   16.2410 C.ar    1  UNL1        0.0000
      7  H         83.8910   28.0730   18.4760 H       1  UNL1        0.0000
      8  H         86.0690   27.2230   17.8120 H       1  UNL1        0.0000
      9  H         86.5610   30.4660   15.1870 H       1  UNL1        0.0000
     10  H         84.3770   31.3220   15.8300 H       1  UNL1        0.0000
     11  O         81.6980   29.4300   17.5680 O.2     1  UNL1        0.0000
     12  N         82.6290   30.2480   17.5380 N.pl3   1  UNL1        0.0000
     13  O         82.5120   31.4550   17.7840 O.2     1  UNL1        0.0000
     14  O         87.6270   28.1330   16.0620 O.3     1  UNL1        0.0000
     15  C         87.7350   27.7040   14.7020 C.3     1  UNL1        0.0000
     16  H         88.7290   27.8800   14.3460 H       1  UNL1        0.0000
     17  H         87.0470   28.2500   14.0910 H       1  UNL1        0.0000
     18  C         87.4270   26.2440   14.6370 C.3     1  UNL1        0.0000
     19  O         88.1090   25.4550   15.6230 O.3     1  UNL1        0.0000
     20  C         88.4830   25.2410   14.2550 C.3     1  UNL1        0.0000
     21  H         86.4290   26.4150   14.2920 H       1  UNL1        0.0000
     22  H         89.4360   25.5700   13.8990 H       1  UNL1        0.0000
     23  H         88.5360   24.3970   13.6000 H       1  UNL1        0.0000
@<TRIPOS>BOND
     1     1     6   ar
     2     1    12    1
     3     1     2   ar
     4     2     3   ar
     5     2     7    1
     6     3     4   ar
     7     3     8    1
     8     4     5   ar
     9     4    14    1
    10     5     9    1
    11     5     6   ar
    12     6    10    1
    13    11    12    2
    14    12    13    2
    15    14    15    1
    16    15    17    1
    17    15    16    1
    18    15    18    1
    19    18    20    1
    20    18    21    1
    21    18    19    1
    22    19    20    1
    23    20    23    1
    24    20    22    1
