@<TRIPOS>MOLECULE
UNL
 22 21 0 0 0
SMALL
GASTEIGER

@<TRIPOS>ATOM
      1  C         85.8870   30.0090   15.8950 C.3     1  UNL1        0.0689
      2  H         85.5750   30.7660   15.2070 H       1  UNL1        0.0422
      3  H         86.6650   30.3370   16.5530 H       1  UNL1        0.0422
      4  C         86.4510   28.8550   15.1050 C.2     1  UNL1        0.1514
      5  O         85.8930   28.3820   14.1110 O.2     1  UNL1       -0.2964
      6  C         87.7930   28.3280   15.5280 C.3     1  UNL1        0.1035
      7  H         88.3300   28.0490   14.6460 H       1  UNL1        0.0456
      8  H         88.2560   29.1160   16.0830 H       1  UNL1        0.0456
      9  O         87.2880   25.9880   15.9240 O.2     1  UNL1       -0.2505
     10  C         87.7590   27.1390   16.4470 C.2     1  UNL1        0.3119
     11  O         88.0860   27.2230   17.6230 O.3     1  UNL1       -0.4803
     12  C         84.7160   29.6500   16.7610 C.2     1  UNL1        0.1634
     13  O         83.7170   30.3750   16.7800 O.2     1  UNL1       -0.2922
     14  C         84.6530   28.3910   17.5550 C.2     1  UNL1       -0.0121
     15  C         84.0620   27.2000   17.3800 C.2     1  UNL1        0.0256
     16  H         85.1820   28.4490   18.4390 H       1  UNL1        0.0655
     17  H         84.1930   26.5270   18.1520 H       1  UNL1        0.0690
     18  C         83.2580   26.7130   16.2540 C.2     1  UNL1        0.3297
     19  O         81.9580   26.9370   16.4960 O.3     1  UNL1       -0.4775
     20  O         83.6370   26.1900   15.2280 O.2     1  UNL1       -0.2458
     21 H          88.4103   28.0339   17.9623 H       1  UNL1        0.2951
     22 H          81.6940   27.3432   17.2980 H       1  UNL1        0.2954
@<TRIPOS>BOND
     1     1     4    1
     2     1     2    1
     3     1     3    1
     4     1    12    1
     5     4     5    2
     6     4     6    1
     7     6     7    1
     8     6     8    1
     9     6    10    1
    10     9    10    2
    11    10    11    1
    12    11    21    1
    13    12    13    2
    14    12    14    1
    15    14    15    2
    16    14    16    1
    17    15    18    1
    18    15    17    1
    19    18    20    2
    20    18    19    1
    21    19    22    1
