@<TRIPOS>MOLECULE
UNL
 39 44 0 0 0
SMALL
GASTEIGER

@<TRIPOS>ATOM
      1  C         85.4110   27.3500   15.9120 C.3     1  UNL1        0.0000
      2  C         85.7110   27.1890   17.4300 C.3     1  UNL1        0.0000
      3  C         84.7540   27.9400   18.3560 C.ar    1  UNL1        0.0000
      4  C         84.5460   27.5110   19.6790 C.ar    1  UNL1        0.0000
      5  C         83.7660   28.2540   20.5800 C.ar    1  UNL1        0.0000
      6  C         83.1410   29.4400   20.1460 C.ar    1  UNL1        0.0000
      7  C         82.3360   30.1660   21.0610 C.ar    1  UNL1        0.0000
      8  C         82.2360   29.7590   22.4050 C.ar    1  UNL1        0.0000
      9  C         82.8810   28.5930   22.8230 C.ar    1  UNL1        0.0000
     10  C         83.6210   27.8370   21.9130 C.ar    1  UNL1        0.0000
     11  C         83.3560   29.8830   18.8150 C.ar    1  UNL1        0.0000
     12  C         82.7200   31.1870   18.3700 C.3     1  UNL1        0.0000
     13  C         81.7960   31.8220   19.3630 C.2     1  UNL1        0.0000
     14  C         81.5890   31.3590   20.6060 C.2     1  UNL1        0.0000
     15  C         80.6030   32.0090   21.5450 C.3     1  UNL1        0.0000
     16  C         80.7550   31.6030   22.9800 C.2     1  UNL1        0.0000
     17  C         81.4990   30.5650   23.3840 C.2     1  UNL1        0.0000
     18  C         84.1850   29.1600   17.9140 C.ar    1  UNL1        0.0000
     19  C         84.4950   29.6770   16.5200 C.3     1  UNL1        0.0000
     20  C         85.1250   28.7570   15.5160 C.3     1  UNL1        0.0000
     21  O         85.8910   29.7800   16.1560 O.3     1  UNL1        0.0000
     22  H         86.3070   27.0220   15.4280 H       1  UNL1        0.0000
     23  H         86.6530   27.6570   17.6210 H       1  UNL1        0.0000
     24  H         84.9770   26.6280   19.9960 H       1  UNL1        0.0000
     25  H         82.8100   28.2900   23.8070 H       1  UNL1        0.0000
     26  H         84.0680   26.9600   22.2240 H       1  UNL1        0.0000
     27  H         82.1640   30.9950   17.4760 H       1  UNL1        0.0000
     28  H         83.5270   31.8770   18.2340 H       1  UNL1        0.0000
     29  H         81.2860   32.6720   19.0720 H       1  UNL1        0.0000
     30  H         79.6150   31.7470   21.2260 H       1  UNL1        0.0000
     31  H         80.7900   33.0610   21.5030 H       1  UNL1        0.0000
     32  H         80.2590   32.1540   23.6980 H       1  UNL1        0.0000
     33  H         81.5540   30.3320   24.3880 H       1  UNL1        0.0000
     34  H         83.6380   30.3180   16.5230 H       1  UNL1        0.0000
     35  H         84.9010   28.4790   14.5080 H       1  UNL1        0.0000
     36  O         84.2900   26.5570   15.5000 O.3     1  UNL1        0.0000
     37  H         84.5690   25.9410   14.8050 H       1  UNL1        0.0000
     38  O         85.7900   25.7910   17.7390 O.3     1  UNL1        0.0000
     39  H         85.4740   25.2730   16.9810 H       1  UNL1        0.0000
@<TRIPOS>BOND
     1     1    22    1
     2     1    36    1
     3     1    20    1
     4     1     2    1
     5     2    23    1
     6     2    38    1
     7     2     3    1
     8     3    18   ar
     9     3     4   ar
    10     4    24    1
    11     4     5   ar
    12     5     6   ar
    13     5    10   ar
    14     6    11   ar
    15     6     7   ar
    16     7    14    1
    17     7     8   ar
    18     8     9   ar
    19     8    17    1
    20     9    10   ar
    21     9    25    1
    22    10    26    1
    23    11    18   ar
    24    11    12    1
    25    12    27    1
    26    12    28    1
    27    12    13    1
    28    13    29    1
    29    13    14    2
    30    14    15    1
    31    15    30    1
    32    15    31    1
    33    15    16    1
    34    16    17    2
    35    16    32    1
    36    17    33    1
    37    18    19    1
    38    19    20    1
    39    19    21    1
    40    19    34    1
    41    20    35    1
    42    20    21    1
    43    36    37    1
    44    38    39    1
