@<TRIPOS>MOLECULE
UNL
 17 18 0 0 0
SMALL
GASTEIGER

@<TRIPOS>ATOM
      1  C         84.3420   29.4760   17.3280 C.ar    1  UNL1        0.0000
      2  C         84.7170   30.3960   16.3330 C.ar    1  UNL1        0.0000
      3  C         85.8910   30.2320   15.5930 C.ar    1  UNL1        0.0000
      4  C         86.7180   29.1380   15.8350 C.ar    1  UNL1        0.0000
      5  C         86.3700   28.2110   16.8130 C.ar    1  UNL1        0.0000
      6  C         85.1960   28.3830   17.5510 C.ar    1  UNL1        0.0000
      7  H         84.1110   31.2090   16.1450 H       1  UNL1        0.0000
      8  H         86.1450   30.9210   14.8680 H       1  UNL1        0.0000
      9  H         87.5870   29.0150   15.2900 H       1  UNL1        0.0000
     10  H         86.9790   27.3980   16.9940 H       1  UNL1        0.0000
     11  H         84.9520   27.6920   18.2760 H       1  UNL1        0.0000
     12  C         83.0940   29.6720   18.1450 C.3     1  UNL1        0.0000
     13  C         81.7580   29.1980   17.6220 C.3     1  UNL1        0.0000
     14  O         82.1010   30.5860   17.6440 O.3     1  UNL1        0.0000
     15  H         83.6410   29.5310   19.0550 H       1  UNL1        0.0000
     16  H         81.0210   28.8140   18.2960 H       1  UNL1        0.0000
     17  H         81.4320   28.5010   16.8770 H       1  UNL1        0.0000
@<TRIPOS>BOND
     1     1     2   ar
     2     1     6   ar
     3     1    12    1
     4     2     3   ar
     5     2     7    1
     6     3     8    1
     7     3     4   ar
     8     4     9    1
     9     4     5   ar
    10     5    10    1
    11     5     6   ar
    12     6    11    1
    13    12    13    1
    14    12    14    1
    15    12    15    1
    16    13    17    1
    17    13    14    1
    18    13    16    1
