@<TRIPOS>MOLECULE
UNL
 10 9 0 0 0
SMALL
GASTEIGER

@<TRIPOS>ATOM
      1 CL         87.9340   25.7860   15.5060 Cl      1  UNL1        0.0000
      2  C         86.8560   26.8890   16.3040 C.2     1  UNL1        0.0000
      3 CL         87.4300   27.5000   17.8270 Cl      1  UNL1        0.0000
      4  C         85.6620   27.2400   15.7950 C.2     1  UNL1        0.0000
      5 CL         85.0900   26.5990   14.2720 Cl      1  UNL1        0.0000
      6  C         84.7360   28.1680   16.4290 C.2     1  UNL1        0.0000
      7 CL         83.4810   27.3880   17.3610 Cl      1  UNL1        0.0000
      8  C         84.8080   29.5110   16.3290 C.2     1  UNL1        0.0000
      9 CL         83.6850   30.5780   17.1120 Cl      1  UNL1        0.0000
     10 CL         86.0380   30.3020   15.3860 Cl      1  UNL1        0.0000
@<TRIPOS>BOND
     1     1     2    1
     2     2     4    2
     3     2     3    1
     4     4     5    1
     5     4     6    1
     6     6     8    2
     7     6     7    1
     8     8    10    1
     9     8     9    1
