@<TRIPOS>MOLECULE
UNL
 6 5 0 0 0
SMALL
GASTEIGER

@<TRIPOS>ATOM
      1 CL         83.9280   30.7600   16.7850 Cl      1  UNL1        0.0000
      2  C         85.1610   29.6200   16.3880 C.2     1  UNL1        0.0000
      3 CL         86.0130   29.8640   14.9020 Cl      1  UNL1        0.0000
      4  C         85.4790   28.5800   17.1640 C.2     1  UNL1        0.0000
      5 CL         84.7460   28.1840   18.6610 Cl      1  UNL1        0.0000
      6  H         86.2330   27.9600   16.8300 H       1  UNL1        0.0000
@<TRIPOS>BOND
     1     1     2    1
     2     2     3    1
     3     2     4    2
     4     4     6    1
     5     4     5    1
