@<TRIPOS>MOLECULE
UNL
 5 4 0 0 0
SMALL
GASTEIGER

@<TRIPOS>ATOM
      1  C         84.4310   29.6750   16.7990 C.3     1  UNL1        0.0000
      2 CL         83.3170   30.9870   17.2030 Cl      1  UNL1        0.0000
      3 CL         85.6960   30.2300   15.6990 Cl      1  UNL1        0.0000
      4  H         83.8830   28.8840   16.3310 H       1  UNL1        0.0000
      5  H         84.8920   29.3320   17.7010 H       1  UNL1        0.0000
@<TRIPOS>BOND
     1     1     3    1
     2     1     4    1
     3     1     2    1
     4     1     5    1
