@<TRIPOS>MOLECULE
UNL
 7 7 0 0 0
SMALL
GASTEIGER

@<TRIPOS>ATOM
      1  C         84.4780   25.8080   16.3550 C.3     1  UNL1        0.0000
      2  C         84.3310   26.2680   14.9320 C.3     1  UNL1        0.0000
      3  O         83.1910   25.9550   15.7410 O.3     1  UNL1        0.0000
      4  H         84.7960   26.4930   17.1130 H       1  UNL1        0.0000
      5  H         85.0020   25.0200   16.8550 H       1  UNL1        0.0000
      6  H         84.6130   25.6240   14.1250 H       1  UNL1        0.0000
      7  H         84.6580   27.1140   14.3640 H       1  UNL1        0.0000
@<TRIPOS>BOND
     1     1     2    1
     2     1     3    1
     3     1     5    1
     4     1     4    1
     5     2     6    1
     6     2     7    1
     7     2     3    1
