@<TRIPOS>MOLECULE
UNL
 18 18 0 0 0
SMALL
GASTEIGER

@<TRIPOS>ATOM
      1 CL         86.3300   25.6430   16.5620 Cl      1  UNL1        0.0000
      2  C         86.0580   26.9740   17.7600 C.3     1  UNL1        0.0000
      3  C         84.5970   26.8950   18.2330 C.3     1  UNL1        0.0000
      4 CL         84.4320   27.7990   19.7760 Cl      1  UNL1        0.0000
      5  C         83.6250   27.3610   17.1240 C.3     1  UNL1        0.0000
      6 CL         81.9080   27.2490   17.6370 Cl      1  UNL1        0.0000
      7  C         83.9640   28.7260   16.4850 C.3     1  UNL1        0.0000
      8 CL         83.5960   30.1100   17.5760 Cl      1  UNL1        0.0000
      9  C         85.4390   28.7410   16.0220 C.3     1  UNL1        0.0000
     10 CL         85.8570   30.3190   15.2630 Cl      1  UNL1        0.0000
     11  C         86.4040   28.3590   17.1640 C.3     1  UNL1        0.0000
     12 CL         88.1260   28.3820   16.6310 Cl      1  UNL1        0.0000
     13  H         86.7100   26.8500   18.5990 H       1  UNL1        0.0000
     14  H         84.3220   25.8810   18.4290 H       1  UNL1        0.0000
     15  H         83.7710   26.6610   16.3280 H       1  UNL1        0.0000
     16  H         83.3350   28.8510   15.6290 H       1  UNL1        0.0000
     17  H         85.5560   27.9890   15.2690 H       1  UNL1        0.0000
     18  H         86.2800   29.1020   17.9230 H       1  UNL1        0.0000
@<TRIPOS>BOND
     1     1     2    1
     2     2    11    1
     3     2     3    1
     4     2    13    1
     5     3     5    1
     6     3    14    1
     7     3     4    1
     8     5    15    1
     9     5     7    1
    10     5     6    1
    11     7    16    1
    12     7     9    1
    13     7     8    1
    14     9    10    1
    15     9    17    1
    16     9    11    1
    17    11    12    1
    18    11    18    1
