@<TRIPOS>MOLECULE
UNL
 38 38 0 0 0
SMALL
GASTEIGER

@<TRIPOS>ATOM
      1  C         83.7420   30.1210   17.2380 C.ar    1  UNL1        0.0000
      2  C         84.0510   28.9350   17.9380 C.ar    1  UNL1        0.0000
      3  C         83.7140   28.8450   19.3010 C.ar    1  UNL1        0.0000
      4  C         82.8520   29.7990   19.8680 C.ar    1  UNL1        0.0000
      5  C         82.4100   30.8860   19.1250 C.ar    1  UNL1        0.0000
      6  C         82.9000   31.0700   17.8360 C.ar    1  UNL1        0.0000
      7  H         82.5440   29.6920   20.8470 H       1  UNL1        0.0000
      8  H         81.7280   31.5490   19.5240 H       1  UNL1        0.0000
      9  H         82.6400   31.9200   17.3110 H       1  UNL1        0.0000
     10  C         84.4710   30.5320   15.9750 C.3     1  UNL1        0.0000
     11  H         84.3460   29.7750   15.2280 H       1  UNL1        0.0000
     12  H         84.0710   31.4560   15.6160 H       1  UNL1        0.0000
     13  C         85.9620   30.7050   16.2810 C.3     1  UNL1        0.0000
     14  H         86.5100   30.7730   15.3640 H       1  UNL1        0.0000
     15  H         86.3110   29.8640   16.8430 H       1  UNL1        0.0000
     16  H         86.1070   31.5990   16.8500 H       1  UNL1        0.0000
     17  N         84.4160   27.7400   17.2370 N.am    1  UNL1        0.0000
     18  C         83.4650   27.0150   16.5360 C.2     1  UNL1        0.0000
     19  O         82.2840   27.3690   16.4520 O.2     1  UNL1        0.0000
     20  C         83.9110   25.7420   15.8270 C.3     1  UNL1        0.0000
     21 CL         84.5640   26.1540   14.2270 Cl      1  UNL1        0.0000
     22  H         83.0740   25.0860   15.7120 H       1  UNL1        0.0000
     23  H         84.6680   25.2580   16.4080 H       1  UNL1        0.0000
     24  C         85.7780   27.2740   17.4900 C.3     1  UNL1        0.0000
     25  H         85.7720   26.2090   17.5850 H       1  UNL1        0.0000
     26  H         86.1330   27.7270   18.3920 H       1  UNL1        0.0000
     27  O         86.6470   27.6440   16.4200 O.3     1  UNL1        0.0000
     28  C         87.6600   26.6890   16.1350 C.3     1  UNL1        0.0000
     29  H         87.3220   25.7160   16.4200 H       1  UNL1        0.0000
     30  H         88.5450   26.9350   16.6840 H       1  UNL1        0.0000
     31  H         87.8760   26.7010   15.0870 H       1  UNL1        0.0000
     32  C         84.4250   27.8870   20.2320 C.3     1  UNL1        0.0000
     33  H         85.4820   27.9700   20.0920 H       1  UNL1        0.0000
     34  H         84.1180   26.8840   20.0180 H       1  UNL1        0.0000
     35  C         84.0710   28.2330   21.6750 C.3     1  UNL1        0.0000
     36  H         83.1560   27.7470   21.9450 H       1  UNL1        0.0000
     37  H         83.9550   29.2920   21.7700 H       1  UNL1        0.0000
     38  H         84.8560   27.9010   22.3240 H       1  UNL1        0.0000
@<TRIPOS>BOND
     1     1    10    1
     2     1     6   ar
     3     1     2   ar
     4     2    17    1
     5     2     3   ar
     6     3     4   ar
     7     3    32    1
     8     4     5   ar
     9     4     7    1
    10     5     6   ar
    11     5     8    1
    12     6     9    1
    13    10    11    1
    14    10    12    1
    15    10    13    1
    16    13    14    1
    17    13    15    1
    18    13    16    1
    19    17    18   am
    20    17    24    1
    21    18    20    1
    22    18    19    2
    23    20    21    1
    24    20    22    1
    25    20    23    1
    26    24    27    1
    27    24    25    1
    28    24    26    1
    29    27    28    1
    30    28    31    1
    31    28    29    1
    32    28    30    1
    33    32    34    1
    34    32    33    1
    35    32    35    1
    36    35    37    1
    37    35    36    1
    38    35    38    1
