@<TRIPOS>MOLECULE
UNL
 32 32 0 0 0
SMALL
GASTEIGER

@<TRIPOS>ATOM
      1 CL         82.1240   32.2270   19.0710 Cl      1  UNL1       -0.0143
      2  C         82.3240   30.5930   18.6070 C.2     1  UNL1        0.3112
      3  N         83.3220   30.3440   17.7790 N.2     1  UNL1       -0.3145
      4  C         83.4110   29.0720   17.4290 C.cat   1  UNL1        0.3513
      5  N         84.3850   28.6660   16.5340 N.pl3   1  UNL1       -0.2868
      6  N         82.5890   28.1240   17.8660 N.2     1  UNL1       -0.0273
      7  C         81.6470   28.4920   18.7280 C.cat   1  UNL1        0.3812
      8  N         80.8220   27.5600   19.3300 N.pl3   1  UNL1       -0.2355
      9  N         81.4590   29.7370   19.1280 N.pl3   1  UNL1       -0.1697
     10  H         84.1990   27.9690   15.8660 H       1  UNL1        0.1515
     11  H         80.4950   27.7150   20.2460 H       1  UNL1        0.2447
     12  C         85.6970   29.3040   16.6120 C.3     1  UNL1        0.0199
     13  H         85.7280   29.9590   17.4580 H       1  UNL1        0.0493
     14  C         86.7990   28.2580   16.7860 C.3     1  UNL1       -0.0468
     15  H         87.7480   28.7010   16.5670 H       1  UNL1        0.0247
     16  H         86.6230   27.4400   16.1190 H       1  UNL1        0.0247
     17  H         86.7960   27.9020   17.7950 H       1  UNL1        0.0247
     18  C         85.9230   30.0840   15.3170 C.3     1  UNL1       -0.0468
     19  H         85.0440   30.6460   15.0810 H       1  UNL1        0.0247
     20  H         86.1350   29.4020   14.5210 H       1  UNL1        0.0247
     21  H         86.7500   30.7520   15.4440 H       1  UNL1        0.0247
     22  C         80.4380   26.3550   18.6180 C.3     1  UNL1        0.0635
     23  H         81.1660   26.1220   17.8690 H       1  UNL1        0.0663
     24  C         80.3330   25.2220   19.6420 C.3     1  UNL1       -0.0334
     25  H         79.3660   25.2430   20.0970 H       1  UNL1        0.0261
     26  H         81.0850   25.3510   20.3930 H       1  UNL1        0.0261
     27  H         80.4770   24.2830   19.1510 H       1  UNL1        0.0261
     28  C         79.0910   26.5520   17.9240 C.3     1  UNL1       -0.0334
     29  H         78.6940   27.5120   18.1830 H       1  UNL1        0.0261
     30  H         78.4120   25.7890   18.2400 H       1  UNL1        0.0261
     31  H         79.2240   26.4960   16.8640 H       1  UNL1        0.0261
     32 H          80.7455   30.0022   19.7524 H       1  UNL1        0.2546
@<TRIPOS>BOND
     1     1     2    1
     2     2     3    2
     3     2     9    1
     4     3     4    2
     5     4     5    1
     6     4     6    1
     7     5    10    1
     8     5    12    1
     9     6     7    2
    10     7     9    1
    11     7     8    1
    12     8    22    1
    13     8    11    1
    14     9    32    1
    15    12    18    1
    16    12    14    1
    17    12    13    1
    18    14    16    1
    19    14    15    1
    20    14    17    1
    21    18    20    1
    22    18    19    1
    23    18    21    1
    24    22    23    1
    25    22    28    1
    26    22    24    1
    27    24    27    1
    28    24    25    1
    29    24    26    1
    30    28    31    1
    31    28    29    1
    32    28    30    1
