@<TRIPOS>MOLECULE
UNL
 28 29 0 0 0
SMALL
GASTEIGER

@<TRIPOS>ATOM
      1  C         82.7280   29.5560   19.8150 C.3     1  UNL1        0.0000
      2  H         83.3020   30.1350   20.5090 H       1  UNL1        0.0000
      3  C         82.4610   28.1980   20.4960 C.ar    1  UNL1        0.0000
      4  C         82.9460   27.8810   21.7770 C.ar    1  UNL1        0.0000
      5  C         82.7120   26.6290   22.3530 C.ar    1  UNL1        0.0000
      6  C         81.9920   25.6690   21.6550 C.ar    1  UNL1        0.0000
      7 CL         81.7060   24.1280   22.3610 Cl      1  UNL1        0.0000
      8  C         81.5030   25.9520   20.3840 C.ar    1  UNL1        0.0000
      9  C         81.7320   27.2060   19.8080 C.ar    1  UNL1        0.0000
     10  H         83.4870   28.5860   22.3020 H       1  UNL1        0.0000
     11  H         83.0740   26.4190   23.2960 H       1  UNL1        0.0000
     12  H         80.9710   25.2360   19.8660 H       1  UNL1        0.0000
     13  H         81.3610   27.4090   18.8670 H       1  UNL1        0.0000
     14  C         83.6610   29.4340   18.5960 C.ar    1  UNL1        0.0000
     15  C         83.5850   30.4090   17.5810 C.ar    1  UNL1        0.0000
     16  C         84.4000   30.3390   16.4520 C.ar    1  UNL1        0.0000
     17  C         85.3170   29.2990   16.3250 C.ar    1  UNL1        0.0000
     18 CL         86.3260   29.2130   14.9380 Cl      1  UNL1        0.0000
     19  C         85.4140   28.3250   17.3210 C.ar    1  UNL1        0.0000
     20  C         84.5880   28.3890   18.4450 C.ar    1  UNL1        0.0000
     21  H         82.9150   31.1890   17.6760 H       1  UNL1        0.0000
     22  H         84.3220   31.0550   15.7130 H       1  UNL1        0.0000
     23  H         86.0980   27.5580   17.2250 H       1  UNL1        0.0000
     24  H         84.6580   27.6600   19.1710 H       1  UNL1        0.0000
     25 CL         81.8390   32.2240   19.4510 Cl      1  UNL1        0.0000
     26  C         81.4570   30.4770   19.6560 C.3     1  UNL1        0.0000
     27 CL         80.2940   30.3440   21.0370 Cl      1  UNL1        0.0000
     28 CL         80.5090   29.9650   18.1890 Cl      1  UNL1        0.0000
@<TRIPOS>BOND
     1     1    14    1
     2     1    26    1
     3     1     3    1
     4     1     2    1
     5     3     9   ar
     6     3     4   ar
     7     4    10    1
     8     4     5   ar
     9     5     6   ar
    10     5    11    1
    11     6     8   ar
    12     6     7    1
    13     8     9   ar
    14     8    12    1
    15     9    13    1
    16    14    15   ar
    17    14    20   ar
    18    15    16   ar
    19    15    21    1
    20    16    22    1
    21    16    17   ar
    22    17    18    1
    23    17    19   ar
    24    19    23    1
    25    19    20   ar
    26    20    24    1
    27    25    26    1
    28    26    28    1
    29    26    27    1
