@<TRIPOS>MOLECULE
UNL
 38 38 0 0 0
SMALL
GASTEIGER

@<TRIPOS>ATOM
      1  C         85.6190   28.5430   17.2850 C.ar    1  UNL1        0.0298
      2  C         85.1200   28.1570   18.5360 C.ar    1  UNL1       -0.0404
      3  C         83.9390   28.6950   19.0600 C.ar    1  UNL1       -0.0568
      4  C         83.2290   29.6710   18.3570 C.ar    1  UNL1       -0.0472
      5  C         83.7300   30.0960   17.1260 C.ar    1  UNL1       -0.0568
      6  C         84.9050   29.5390   16.6030 C.ar    1  UNL1       -0.0404
      7  H         85.6390   27.4560   19.0890 H       1  UNL1        0.0636
      8  H         83.5880   28.3680   19.9730 H       1  UNL1        0.0621
      9  H         83.2310   30.8270   16.5950 H       1  UNL1        0.0621
     10  H         85.2540   29.8710   15.6920 H       1  UNL1        0.0636
     11  C         81.9370   30.2320   18.8950 C.3     1  UNL1       -0.0272
     12  H         81.9350   31.2890   18.7300 H       1  UNL1        0.0313
     13  H         81.8980   29.9740   19.9320 H       1  UNL1        0.0313
     14  C         80.6800   29.6440   18.2480 C.3     1  UNL1       -0.0390
     15  H         80.8220   29.6160   17.1890 H       1  UNL1        0.0274
     16  H         79.8550   30.2690   18.5210 H       1  UNL1        0.0274
     17  C         80.3660   28.2290   18.7370 C.3     1  UNL1        0.0451
     18  H         79.3690   28.2080   19.1230 H       1  UNL1        0.0378
     19  H         81.0750   27.9720   19.4960 H       1  UNL1        0.0378
     20  C         80.4810   27.2180   17.6220 C.2     1  UNL1        0.3047
     21  O         79.4580   26.3330   17.6230 O.3     1  UNL1       -0.4806
     22  O         81.3760   27.1780   16.7910 O.2     1  UNL1       -0.2510
     23  N         86.7330   27.9390   16.6990 N.pl3   1  UNL1       -0.3276
     24  C         87.6830   27.1590   17.5200 C.3     1  UNL1        0.0257
     25  H         88.6680   27.5470   17.3680 H       1  UNL1        0.0475
     26  H         87.3800   27.2470   18.5430 H       1  UNL1        0.0475
     27 CL         86.0110   25.0410   17.0850 Cl      1  UNL1       -0.1238
     28  C         87.6790   25.6680   17.1570 C.3     1  UNL1        0.0383
     29  H         88.1460   25.5370   16.2030 H       1  UNL1        0.0445
     30  H         88.2170   25.1290   17.9090 H       1  UNL1        0.0445
     31  C         87.2570   28.5200   15.4420 C.3     1  UNL1        0.0257
     32  H         88.3070   28.6890   15.5640 H       1  UNL1        0.0475
     33  H         86.7080   29.4220   15.2700 H       1  UNL1        0.0475
     34  C         87.0530   27.6390   14.2060 C.3     1  UNL1        0.0383
     35 CL         85.4280   26.9070   14.1490 Cl      1  UNL1       -0.1238
     36  H         87.7820   26.8560   14.2170 H       1  UNL1        0.0445
     37  H         87.1580   28.2620   13.3410 H       1  UNL1        0.0445
     38 H          78.7878   26.3923   18.2752 H       1  UNL1        0.2951
@<TRIPOS>BOND
     1     1     6   ar
     2     1    23    1
     3     1     2   ar
     4     2     3   ar
     5     2     7    1
     6     3     4   ar
     7     3     8    1
     8     4     5   ar
     9     4    11    1
    10     5     9    1
    11     5     6   ar
    12     6    10    1
    13    11    14    1
    14    11    12    1
    15    11    13    1
    16    14    15    1
    17    14    16    1
    18    14    17    1
    19    17    20    1
    20    17    18    1
    21    17    19    1
    22    20    22    2
    23    20    21    1
    24    21    38    1
    25    23    31    1
    26    23    24    1
    27    24    28    1
    28    24    25    1
    29    24    26    1
    30    27    28    1
    31    28    29    1
    32    28    30    1
    33    31    34    1
    34    31    33    1
    35    31    32    1
    36    34    37    1
    37    34    35    1
    38    34    36    1
