@<TRIPOS>MOLECULE
UNL
 29 29 0 0 0
SMALL
GASTEIGER

@<TRIPOS>ATOM
      1  N         84.7690   27.7170   16.9360 N.3     1  UNL1        0.0000
      2  P         84.6020   26.3320   16.0790 P.3     1  UNL1        0.0000
      3  N         85.7450   25.2420   16.4820 N.3     1  UNL1        0.0000
      4  C         87.1440   25.5680   16.2880 C.3     1  UNL1        0.0000
      5  C         87.4830   26.4630   15.0910 C.3     1  UNL1        0.0000
      6  C         86.3720   27.3110   14.4910 C.3     1  UNL1        0.0000
      7  O         85.0890   26.7210   14.5870 O.3     1  UNL1        0.0000
      8  O         83.2150   25.7560   16.0670 O.2     1  UNL1        0.0000
      9  H         85.5580   24.4020   15.9350 H       1  UNL1        0.0000
     10  H         87.6770   24.6490   16.1670 H       1  UNL1        0.0000
     11  H         87.4220   26.1360   17.1520 H       1  UNL1        0.0000
     12  H         87.8520   25.8270   14.3140 H       1  UNL1        0.0000
     13  H         88.1790   27.1750   15.4810 H       1  UNL1        0.0000
     14  H         86.5920   27.4730   13.4560 H       1  UNL1        0.0000
     15  H         86.3390   28.2240   15.0480 H       1  UNL1        0.0000
     16  C         83.7570   28.7500   16.6520 C.3     1  UNL1        0.0000
     17  H         83.4020   28.6050   15.6530 H       1  UNL1        0.0000
     18  H         82.9880   28.6370   17.3870 H       1  UNL1        0.0000
     19 CL         85.8040   30.3760   15.8850 Cl      1  UNL1        0.0000
     20  C         84.2730   30.1850   16.7740 C.3     1  UNL1        0.0000
     21  H         83.5440   30.8570   16.3690 H       1  UNL1        0.0000
     22  H         84.4430   30.4050   17.8070 H       1  UNL1        0.0000
     23  C         85.2600   27.7290   18.3160 C.3     1  UNL1        0.0000
     24  H         85.6620   28.7010   18.5060 H       1  UNL1        0.0000
     25  H         85.9680   26.9290   18.3640 H       1  UNL1        0.0000
     26  C         84.2460   27.4260   19.4170 C.3     1  UNL1        0.0000
     27 CL         83.8840   28.9180   20.3250 Cl      1  UNL1        0.0000
     28  H         84.6520   26.6940   20.0830 H       1  UNL1        0.0000
     29  H         83.3460   27.0510   18.9770 H       1  UNL1        0.0000
@<TRIPOS>BOND
     1     1     2    1
     2     1    16    1
     3     1    23    1
     4     2     7    1
     5     2     8    2
     6     2     3    1
     7     3     9    1
     8     3     4    1
     9     4     5    1
    10     4    10    1
    11     4    11    1
    12     5    12    1
    13     5     6    1
    14     5    13    1
    15     6    14    1
    16     6     7    1
    17     6    15    1
    18    16    17    1
    19    16    20    1
    20    16    18    1
    21    19    20    1
    22    20    21    1
    23    20    22    1
    24    23    25    1
    25    23    24    1
    26    23    26    1
    27    26    29    1
    28    26    28    1
    29    26    27    1
