@<TRIPOS>MOLECULE
UNL
 21 20 0 0 0
SMALL
GASTEIGER

@<TRIPOS>ATOM
      1  O         85.8140   28.7550   16.7930 O.2     1  UNL1        0.0000
      2  C         85.0800   27.9390   16.2310 C.2     1  UNL1        0.0000
      3  N         83.7910   27.6770   16.6870 N.am    1  UNL1        0.0000
      4  N         85.5220   27.2620   15.1280 N.am    1  UNL1        0.0000
      5  H         84.9410   26.5670   14.7420 H       1  UNL1        0.0000
      6  C         83.3300   28.3650   17.8930 C.3     1  UNL1        0.0000
      7  H         84.1870   28.7420   18.4110 H       1  UNL1        0.0000
      8  H         82.7800   27.6470   18.4640 H       1  UNL1        0.0000
      9  C         82.3800   29.5340   17.6290 C.3     1  UNL1        0.0000
     10 CL         83.2610   31.0340   17.2450 Cl      1  UNL1        0.0000
     11  H         81.7820   29.6980   18.5000 H       1  UNL1        0.0000
     12  H         81.7720   29.2830   16.7850 H       1  UNL1        0.0000
     13  C         86.8050   27.5170   14.4980 C.3     1  UNL1        0.0000
     14  H         87.2780   28.3210   15.0220 H       1  UNL1        0.0000
     15  H         86.5940   27.7450   13.4730 H       1  UNL1        0.0000
     16  C         87.7630   26.3290   14.4840 C.3     1  UNL1        0.0000
     17 CL         87.7880   25.4890   16.0580 Cl      1  UNL1        0.0000
     18  H         88.7490   26.6790   14.2620 H       1  UNL1        0.0000
     19  H         87.4290   25.6360   13.7410 H       1  UNL1        0.0000
     20  N         82.8650   26.7780   16.1330 N.2     1  UNL1        0.0000
     21  O         83.2150   25.5970   16.0710 O.2     1  UNL1        0.0000
@<TRIPOS>BOND
     1     1     2    2
     2     2     4   am
     3     2     3   am
     4     3    20    1
     5     3     6    1
     6     4    13    1
     7     4     5    1
     8     6     9    1
     9     6     7    1
    10     6     8    1
    11     9    12    1
    12     9    10    1
    13     9    11    1
    14    13    15    1
    15    13    16    1
    16    13    14    1
    17    16    19    1
    18    16    18    1
    19    16    17    1
    20    20    21    2
