@<TRIPOS>MOLECULE
UNL
 15 15 0 0 0
SMALL
GASTEIGER

@<TRIPOS>ATOM
      1  C         84.7860   27.9620   16.1990 C.3     1  UNL1        0.1849
      2  C         85.9820   28.7670   15.7550 C.3     1  UNL1        0.0945
      3  O         85.9210   28.2050   17.0660 O.3     1  UNL1       -0.3557
      4  H         83.7300   28.1220   16.2470 H       1  UNL1        0.0750
      5  H         86.6190   28.7150   14.8970 H       1  UNL1        0.0626
      6  O         83.1350   25.8530   16.0480 O.3     1  UNL1       -0.3223
      7  P         84.5750   26.3140   15.5340 P.3     1  UNL1        0.3587
      8  O         85.5440   25.3820   16.3960 O.3     1  UNL1       -0.3223
      9  O         84.8220   26.3790   14.0720 O.2     1  UNL1       -0.2560
     10  C         85.9250   30.2500   15.6980 C.3     1  UNL1       -0.0356
     11  H         84.9570   30.5560   15.3630 H       1  UNL1        0.0255
     12  H         86.6690   30.6100   15.0190 H       1  UNL1        0.0255
     13  H         86.1070   30.6500   16.6750 H       1  UNL1        0.0255
     14 H          82.4492   26.3602   15.5861 H       1  UNL1        0.2198
     15 H          85.4757   24.4667   16.0822 H       1  UNL1        0.2198
@<TRIPOS>BOND
     1     1     7    1
     2     1     2    1
     3     1     4    1
     4     1     3    1
     5     2     5    1
     6     2    10    1
     7     2     3    1
     8     6     7    1
     9     6    14    1
    10     7     9    2
    11     7     8    1
    12     8    15    1
    13    10    12    1
    14    10    11    1
    15    10    13    1
