@<TRIPOS>MOLECULE
UNL
 21 22 0 0 0
SMALL
GASTEIGER

@<TRIPOS>ATOM
      1  O         86.1220   27.9280   17.2780 O.2     1  UNL1        0.0000
      2  C         85.2350   28.7580   17.4350 C.2     1  UNL1        0.0000
      3  C         84.9610   29.8070   16.4150 C.2     1  UNL1        0.0000
      4  C         83.9810   30.6990   16.6110 C.2     1  UNL1        0.0000
      5  C         83.1210   30.6950   17.8090 C.2     1  UNL1        0.0000
      6  C         83.3800   29.6700   18.8340 C.ar    1  UNL1        0.0000
      7  C         82.5950   29.6350   19.9950 C.ar    1  UNL1        0.0000
      8  C         82.8480   28.6780   20.9800 C.ar    1  UNL1        0.0000
      9  C         83.8780   27.7530   20.8060 C.ar    1  UNL1        0.0000
     10  C         84.6540   27.7810   19.6460 C.ar    1  UNL1        0.0000
     11  C         84.4050   28.7420   18.6570 C.ar    1  UNL1        0.0000
     12  O         82.2260   31.5210   17.9300 O.2     1  UNL1        0.0000
     13  H         83.8220   31.4220   15.8920 H       1  UNL1        0.0000
     14  H         81.8320   30.3190   20.1220 H       1  UNL1        0.0000
     15  H         82.2710   28.6540   21.8340 H       1  UNL1        0.0000
     16  H         84.0660   27.0490   21.5360 H       1  UNL1        0.0000
     17  H         85.4120   27.0950   19.5180 H       1  UNL1        0.0000
     18  C         85.8030   29.8220   15.1760 C.3     1  UNL1        0.0000
     19  H         86.2180   30.7980   15.0390 H       1  UNL1        0.0000
     20  H         85.1970   29.5690   14.3310 H       1  UNL1        0.0000
     21  H         86.5950   29.1080   15.2740 H       1  UNL1        0.0000
@<TRIPOS>BOND
     1     1     2    2
     2     2     3    1
     3     2    11    1
     4     3    18    1
     5     3     4    2
     6     4    13    1
     7     4     5    1
     8     5    12    2
     9     5     6    1
    10     6    11   ar
    11     6     7   ar
    12     7    14    1
    13     7     8   ar
    14     8     9   ar
    15     8    15    1
    16     9    10   ar
    17     9    16    1
    18    10    11   ar
    19    10    17    1
    20    18    20    1
    21    18    19    1
    22    18    21    1
