@<TRIPOS>MOLECULE
UNL
 18 18 0 0 0
SMALL
GASTEIGER

@<TRIPOS>ATOM
      1  O         82.5130   31.4430   17.6160 O.2     1  UNL1        0.0000
      2  C         83.3420   30.5580   17.4580 C.2     1  UNL1        0.0000
      3  C         84.3820   30.6510   16.4210 C.2     1  UNL1        0.0000
      4  C         85.3570   29.7410   16.3200 C.2     1  UNL1        0.0000
      5  C         83.3290   29.3390   18.2840 C.2     1  UNL1        0.0000
      6  C         84.3010   28.4280   18.1830 C.2     1  UNL1        0.0000
      7  C         85.4630   28.5910   17.2630 C.2     1  UNL1        0.0000
      8  N         86.4140   27.7250   17.4030 N.am    1  UNL1        0.0000
      9  H         84.3590   31.4400   15.7560 H       1  UNL1        0.0000
     10  H         86.0540   29.8370   15.5660 H       1  UNL1        0.0000
     11  H         82.5570   29.1860   18.9520 H       1  UNL1        0.0000
     12  H         84.2460   27.5770   18.7650 H       1  UNL1        0.0000
     13  C         87.5770   27.7560   16.6760 C.2     1  UNL1        0.0000
     14  O         88.5530   28.4740   16.8760 O.2     1  UNL1        0.0000
     15  C         87.6030   26.7340   15.5690 C.3     1  UNL1        0.0000
     16  H         86.6220   26.3290   15.4350 H       1  UNL1        0.0000
     17  H         88.2800   25.9470   15.8270 H       1  UNL1        0.0000
     18  H         87.9250   27.1990   14.6610 H       1  UNL1        0.0000
@<TRIPOS>BOND
     1     1     2    2
     2     2     3    1
     3     2     5    1
     4     3     9    1
     5     3     4    2
     6     4    10    1
     7     4     7    1
     8     5     6    2
     9     5    11    1
    10     6     7    1
    11     6    12    1
    12     7     8    2
    13     8    13    1
    14    13    15    1
    15    13    14    2
    16    15    18    1
    17    15    16    1
    18    15    17    1
