@<TRIPOS>MOLECULE
UNL
 69 73 0 0 0
SMALL
GASTEIGER

@<TRIPOS>ATOM
      1  C         86.0700   27.0480   15.5020 C.3     1  UNL1        0.0000
      2  C         84.8820   26.1690   15.1210 C.3     1  UNL1        0.0000
      3  C         83.7630   26.3080   16.1470 C.3     1  UNL1        0.0000
      4  C         83.3100   27.7660   16.3850 C.3     1  UNL1        0.0000
      5  C         84.5090   28.6850   16.5140 C.3     1  UNL1        0.0000
      6  C         84.2880   30.0400   17.1130 C.3     1  UNL1        0.0000
      7  C         82.9010   30.4190   17.5080 C.3     1  UNL1        0.0000
      8  C         82.1100   29.2810   18.1770 C.3     1  UNL1        0.0000
      9  C         82.3950   27.8390   17.6390 C.3     1  UNL1        0.0000
     10  C         81.1210   26.9870   17.4830 C.3     1  UNL1        0.0000
     11  C         80.2760   27.0680   18.7450 C.3     1  UNL1        0.0000
     12  C         79.7470   28.4790   18.9360 C.3     1  UNL1        0.0000
     13  C         80.6050   29.6020   18.3100 C.3     1  UNL1        0.0000
     14  C         80.2990   30.8460   19.1550 C.3     1  UNL1        0.0000
     15  C         79.2790   30.4370   20.2140 C.3     1  UNL1        0.0000
     16  C         79.3770   28.9140   20.3710 C.3     1  UNL1        0.0000
     17  O         84.9190   28.9860   17.8590 O.3     1  UNL1        0.0000
     18  C         85.6360   28.5080   15.5420 C.3     1  UNL1        0.0000
     19  H         86.4310   26.7610   16.4670 H       1  UNL1        0.0000
     20  H         85.1970   25.1480   15.0810 H       1  UNL1        0.0000
     21  H         84.5140   26.4810   14.1650 H       1  UNL1        0.0000
     22  H         84.1070   25.9060   17.0770 H       1  UNL1        0.0000
     23  H         82.9180   25.7790   15.7590 H       1  UNL1        0.0000
     24  H         82.7440   28.0990   15.5400 H       1  UNL1        0.0000
     25  H         84.5370   31.0420   16.8360 H       1  UNL1        0.0000
     26  H         82.3730   30.7240   16.6290 H       1  UNL1        0.0000
     27  H         82.9870   31.2040   18.2290 H       1  UNL1        0.0000
     28  H         82.5080   29.2420   19.1700 H       1  UNL1        0.0000
     29  H         82.9780   27.3960   18.4190 H       1  UNL1        0.0000
     30  H         81.3960   25.9690   17.3060 H       1  UNL1        0.0000
     31  H         80.5510   27.3610   16.6580 H       1  UNL1        0.0000
     32  H         80.8760   26.7990   19.5900 H       1  UNL1        0.0000
     33  H         79.4480   26.3970   18.6530 H       1  UNL1        0.0000
     34  H         78.8350   28.3710   18.3890 H       1  UNL1        0.0000
     35  H         80.3430   29.7470   17.2830 H       1  UNL1        0.0000
     36  H         79.8950   31.6190   18.5350 H       1  UNL1        0.0000
     37  H         81.1910   31.2210   19.6120 H       1  UNL1        0.0000
     38  H         78.2930   30.7110   19.8990 H       1  UNL1        0.0000
     39  H         79.4750   30.9300   21.1430 H       1  UNL1        0.0000
     40  H         78.4750   28.4320   20.6910 H       1  UNL1        0.0000
     41  H         85.3130   28.8080   14.5670 H       1  UNL1        0.0000
     42  H         86.4640   29.1100   15.8530 H       1  UNL1        0.0000
     43  O         87.1060   26.8830   14.5390 O.3     1  UNL1        0.0000
     44  H         87.0440   25.9980   14.1460 H       1  UNL1        0.0000
     45  C         80.2060   28.3910   21.5950 C.3     1  UNL1        0.0000
     46  H         81.1060   27.9870   21.1770 H       1  UNL1        0.0000
     47  C         79.4130   27.3000   22.3300 C.3     1  UNL1        0.0000
     48  H         78.9730   26.6360   21.6160 H       1  UNL1        0.0000
     49  H         78.6410   27.7540   22.9170 H       1  UNL1        0.0000
     50  H         80.0700   26.7500   22.9700 H       1  UNL1        0.0000
     51  C         80.7050   29.4680   22.5750 C.3     1  UNL1        0.0000
     52  H         80.5050   29.1150   23.5650 H       1  UNL1        0.0000
     53  H         80.1810   30.3560   22.2850 H       1  UNL1        0.0000
     54  C         82.1870   29.8630   22.5210 C.3     1  UNL1        0.0000
     55  H         82.6740   29.4390   23.3740 H       1  UNL1        0.0000
     56  H         82.2090   30.9340   22.5060 H       1  UNL1        0.0000
     57  C         82.9410   29.4040   21.2660 C.3     1  UNL1        0.0000
     58  H         83.4320   30.2580   20.8490 H       1  UNL1        0.0000
     59  H         82.1990   28.9690   20.6280 H       1  UNL1        0.0000
     60  C         84.0050   28.3020   21.4790 C.3     1  UNL1        0.0000
     61  H         84.8900   28.6200   20.9680 H       1  UNL1        0.0000
     62  C         84.3810   28.1110   22.9480 C.3     1  UNL1        0.0000
     63  H         83.5580   27.6720   23.4730 H       1  UNL1        0.0000
     64  H         84.6150   29.0600   23.3830 H       1  UNL1        0.0000
     65  H         85.2330   27.4670   23.0170 H       1  UNL1        0.0000
     66  C         83.5000   26.9770   20.8990 C.3     1  UNL1        0.0000
     67  H         82.5750   27.1420   20.3870 H       1  UNL1        0.0000
     68  H         83.3490   26.2760   21.6930 H       1  UNL1        0.0000
     69  H         84.2240   26.5900   20.2130 H       1  UNL1        0.0000
@<TRIPOS>BOND
     1     1    43    1
     2     1     2    1
     3     1    18    1
     4     1    19    1
     5     2    21    1
     6     2    20    1
     7     2     3    1
     8     3    23    1
     9     3     4    1
    10     3    22    1
    11     4    24    1
    12     4     5    1
    13     4     9    1
    14     5    18    1
    15     5     6    1
    16     5    17    1
    17     6    25    1
    18     6     7    1
    19     6    17    1
    20     7    26    1
    21     7     8    1
    22     7    27    1
    23     8     9    1
    24     8    13    1
    25     8    28    1
    26     9    10    1
    27     9    29    1
    28    10    31    1
    29    10    30    1
    30    10    11    1
    31    11    33    1
    32    11    12    1
    33    11    32    1
    34    12    13    1
    35    12    34    1
    36    12    16    1
    37    13    35    1
    38    13    14    1
    39    14    36    1
    40    14    37    1
    41    14    15    1
    42    15    38    1
    43    15    16    1
    44    15    39    1
    45    16    40    1
    46    16    45    1
    47    18    41    1
    48    18    42    1
    49    43    44    1
    50    45    46    1
    51    45    47    1
    52    45    51    1
    53    47    48    1
    54    47    49    1
    55    47    50    1
    56    51    53    1
    57    51    54    1
    58    51    52    1
    59    54    57    1
    60    54    56    1
    61    54    55    1
    62    57    59    1
    63    57    58    1
    64    57    60    1
    65    60    66    1
    66    60    61    1
    67    60    62    1
    68    62    65    1
    69    62    64    1
    70    62    63    1
    71    66    69    1
    72    66    67    1
    73    66    68    1
