@<TRIPOS>MOLECULE
UNL
 21 22 0 0 0
SMALL
GASTEIGER

@<TRIPOS>ATOM
      1  N         84.7090   27.6460   17.0200 N.ar    1  UNL1        0.0000
      2  C         85.7090   27.5130   16.0660 C.ar    1  UNL1        0.0000
      3  N         86.0110   28.3530   15.0550 N.ar    1  UNL1        0.0000
      4  C         87.0500   27.9000   14.3300 C.ar    1  UNL1        0.0000
      5  N         87.7580   26.7670   14.5040 N.ar    1  UNL1        0.0000
      6  C         87.4320   25.9590   15.5380 C.ar    1  UNL1        0.0000
      7  C         86.3560   26.3240   16.3660 C.ar    1  UNL1        0.0000
      8  N         85.7900   25.7100   17.4580 N.ar    1  UNL1        0.0000
      9  C         84.8270   26.5270   17.8280 C.ar    1  UNL1        0.0000
     10  H         87.3440   28.4970   13.5410 H       1  UNL1        0.0000
     11  H         84.2190   26.3510   18.6440 H       1  UNL1        0.0000
     12  C         83.5320   29.3690   18.2990 C.2     1  UNL1        0.0000
     13  C         83.7620   28.6630   17.1820 C.2     1  UNL1        0.0000
     14  H         84.0880   29.1840   19.1480 H       1  UNL1        0.0000
     15  H         83.1820   28.8910   16.3600 H       1  UNL1        0.0000
     16  O         82.5200   31.4120   17.6090 O.2     1  UNL1        0.0000
     17  C         82.4860   30.4160   18.3190 C.2     1  UNL1        0.0000
     18  H         81.6880   30.3000   18.9630 H       1  UNL1        0.0000
     19  N         88.1750   24.8010   15.7180 N.pl3   1  UNL1        0.0000
     20  H         87.9600   23.9920   15.1980 H       1  UNL1        0.0000
     21  H         88.9150   24.7860   16.3670 H       1  UNL1        0.0000
@<TRIPOS>BOND
     1     1     2   ar
     2     1    13    1
     3     1     9   ar
     4     2     3   ar
     5     2     7   ar
     6     3     4   ar
     7     4    10    1
     8     4     5   ar
     9     5     6   ar
    10     6    19    1
    11     6     7   ar
    12     7     8   ar
    13     8     9   ar
    14     9    11    1
    15    12    13    2
    16    12    17    1
    17    12    14    1
    18    13    15    1
    19    16    17    2
    20    17    18    1
    21    19    20    1
    22    19    21    1
