@<TRIPOS>MOLECULE
UNL
 53 52 0 0 0
SMALL
GASTEIGER

@<TRIPOS>ATOM
      1  C         86.3580   29.5420   15.3100 C.3     1  UNL1        0.0736
      2  H         87.0020   30.1600   14.7190 H       1  UNL1        0.0638
      3  C         85.1380   30.3360   15.6790 C.2     1  UNL1       -0.0559
      4  C         84.4460   30.1010   16.8020 C.2     1  UNL1       -0.0636
      5  H         84.8220   31.0890   15.0470 H       1  UNL1        0.0597
      6  H         84.7770   29.3340   17.4090 H       1  UNL1        0.0615
      7  C         83.2820   30.8230   17.2340 C.2     1  UNL1       -0.0659
      8  C         82.5140   30.4250   18.2640 C.2     1  UNL1       -0.0840
      9  H         83.0220   31.6850   16.7300 H       1  UNL1        0.0614
     10  H         81.7180   31.0310   18.5160 H       1  UNL1        0.0572
     11  C         82.7120   29.1770   19.0810 C.3     1  UNL1       -0.0345
     12  H         83.5060   28.6020   18.6510 H       1  UNL1        0.0307
     13  H         81.7940   28.6270   19.0770 H       1  UNL1        0.0307
     14  C         83.0670   29.5000   20.5330 C.3     1  UNL1       -0.0496
     15  H         82.1660   29.6650   21.0880 H       1  UNL1        0.0268
     16  H         83.6770   30.3790   20.5540 H       1  UNL1        0.0268
     17  C         83.8410   28.3450   21.1620 C.3     1  UNL1       -0.0530
     18  H         83.5230   28.2250   22.1770 H       1  UNL1        0.0265
     19  H         84.8850   28.5760   21.1130 H       1  UNL1        0.0265
     20  C         83.6090   27.0350   20.4140 C.3     1  UNL1       -0.0559
     21  H         84.5500   26.5540   20.2500 H       1  UNL1        0.0263
     22  H         83.1320   27.2540   19.4820 H       1  UNL1        0.0263
     23  C         82.7090   26.1080   21.2140 C.3     1  UNL1       -0.0653
     24  H         81.6930   26.4320   21.1250 H       1  UNL1        0.0230
     25  H         83.0010   26.1280   22.2440 H       1  UNL1        0.0230
     26  H         82.7990   25.1100   20.8380 H       1  UNL1        0.0230
     27  C         87.1600   29.1150   16.5440 C.3     1  UNL1       -0.0232
     28  H         87.8020   29.9200   16.8360 H       1  UNL1        0.0293
     29  H         86.4670   28.8710   17.3220 H       1  UNL1        0.0293
     30  C         88.0130   27.8810   16.2680 C.3     1  UNL1       -0.0504
     31  H         87.5060   27.2520   15.5670 H       1  UNL1        0.0266
     32  H         88.9550   28.1930   15.8700 H       1  UNL1        0.0266
     33  C         88.2540   27.1030   17.5580 C.3     1  UNL1       -0.0530
     34  H         89.2780   27.2060   17.8460 H       1  UNL1        0.0265
     35  H         87.6170   27.4920   18.3240 H       1  UNL1        0.0265
     36  C         87.9370   25.6270   17.3500 C.3     1  UNL1       -0.0530
     37  H         88.8140   25.1280   16.9940 H       1  UNL1        0.0265
     38  H         87.6220   25.2130   18.2850 H       1  UNL1        0.0265
     39  C         86.8140   25.4440   16.3350 C.3     1  UNL1       -0.0526
     40  H         86.7130   26.3390   15.7570 H       1  UNL1        0.0265
     41  H         87.0550   24.6190   15.6970 H       1  UNL1        0.0265
     42  C         85.4970   25.1520   17.0470 C.3     1  UNL1       -0.0430
     43  H         84.9690   24.3940   16.5070 H       1  UNL1        0.0270
     44  H         85.7170   24.8250   18.0420 H       1  UNL1        0.0270
     45  C         84.6230   26.4000   17.1330 C.3     1  UNL1        0.0448
     46  H         84.1720   26.4410   18.1030 H       1  UNL1        0.0377
     47  H         85.2430   27.2560   16.9650 H       1  UNL1        0.0377
     48  O         82.3020   26.5640   16.6200 O.3     1  UNL1       -0.4806
     49  C         83.5340   26.3870   16.0840 C.2     1  UNL1        0.3047
     50  O         83.7060   26.2380   14.8890 O.2     1  UNL1       -0.2510
     51  O         85.9480   28.4010   14.5660 O.3     1  UNL1       -0.3878
     52  H         86.6320   28.1750   13.9170 H       1  UNL1        0.2102
     53 H          82.2053   26.6759   17.5453 H       1  UNL1        0.2951
@<TRIPOS>BOND
     1     1    51    1
     2     1     2    1
     3     1     3    1
     4     1    27    1
     5     3     5    1
     6     3     4    2
     7     4     7    1
     8     4     6    1
     9     7     9    1
    10     7     8    2
    11     8    10    1
    12     8    11    1
    13    11    12    1
    14    11    13    1
    15    11    14    1
    16    14    16    1
    17    14    15    1
    18    14    17    1
    19    17    20    1
    20    17    19    1
    21    17    18    1
    22    20    22    1
    23    20    21    1
    24    20    23    1
    25    23    26    1
    26    23    24    1
    27    23    25    1
    28    27    30    1
    29    27    28    1
    30    27    29    1
    31    30    31    1
    32    30    32    1
    33    30    33    1
    34    33    36    1
    35    33    34    1
    36    33    35    1
    37    36    39    1
    38    36    37    1
    39    36    38    1
    40    39    41    1
    41    39    40    1
    42    39    42    1
    43    42    43    1
    44    42    45    1
    45    42    44    1
    46    45    49    1
    47    45    47    1
    48    45    46    1
    49    48    49    1
    50    48    53    1
    51    49    50    2
    52    51    52    1
