@<TRIPOS>MOLECULE
UNL
 18 19 0 0 0
SMALL
GASTEIGER

@<TRIPOS>ATOM
      1  O         82.0280   31.2100   18.1430 O.2     1  UNL1        0.0000
      2  C         82.9830   30.4940   17.8770 C.2     1  UNL1        0.0000
      3  C         83.3180   29.2530   18.7140 C.2     1  UNL1        0.0000
      4  C         84.4910   28.4440   18.3140 C.2     1  UNL1        0.0000
      5  C         85.2040   28.8190   17.2510 C.2     1  UNL1        0.0000
      6  N         86.3020   28.2310   16.7090 N.pl3   1  UNL1        0.0000
      7  C         86.8500   28.9220   15.5610 C.3     1  UNL1        0.0000
      8  C         85.8950   30.1130   15.3560 C.3     1  UNL1        0.0000
      9  C         84.8850   29.9910   16.4700 C.2     1  UNL1        0.0000
     10  C         83.8570   30.8040   16.7250 C.2     1  UNL1        0.0000
     11  O         82.6420   28.9340   19.6830 O.2     1  UNL1        0.0000
     12  H         84.7530   27.6010   18.8500 H       1  UNL1        0.0000
     13  H         86.6950   27.4020   17.0670 H       1  UNL1        0.0000
     14  H         86.8540   28.2860   14.6990 H       1  UNL1        0.0000
     15  H         87.8650   29.2260   15.7070 H       1  UNL1        0.0000
     16  H         85.4140   30.0530   14.4030 H       1  UNL1        0.0000
     17  H         86.4080   31.0520   15.3780 H       1  UNL1        0.0000
     18  H         83.6760   31.6290   16.1310 H       1  UNL1        0.0000
@<TRIPOS>BOND
     1     1     2    2
     2     2    10    1
     3     2     3    1
     4     3     4    1
     5     3    11    2
     6     4     5    2
     7     4    12    1
     8     5     9    1
     9     5     6    1
    10     6     7    1
    11     6    13    1
    12     7    14    1
    13     7     8    1
    14     7    15    1
    15     8    16    1
    16     8    17    1
    17     8     9    1
    18     9    10    2
    19    10    18    1
