@<TRIPOS>MOLECULE
UNL
 114 118 0 0 0
SMALL
GASTEIGER

@<TRIPOS>ATOM
      1  C         85.3440   27.1190   18.6260 C.3     1  UNL1        0.0000
      2  C         84.0970   26.2030   18.6830 C.3     1  UNL1        0.0000
      3  C         82.8250   27.0260   19.1250 C.3     1  UNL1        0.0000
      4  C         82.6580   28.4370   18.3850 C.3     1  UNL1        0.0000
      5  C         82.9040   29.6210   19.4490 C.3     1  UNL1        0.0000
      6  C         81.9850   29.7500   20.7220 C.3     1  UNL1        0.0000
      7  C         82.6440   29.4620   22.1030 C.3     1  UNL1        0.0000
      8  C         83.5060   28.2410   22.3420 C.2     1  UNL1        0.0000
      9  C         83.1180   26.9540   22.4530 C.2     1  UNL1        0.0000
     10  C         81.7560   26.4030   22.1220 C.3     1  UNL1        0.0000
     11  O         81.3020   25.6120   23.2450 O.3     1  UNL1        0.0000
     12  C         81.7300   25.5110   20.9010 C.3     1  UNL1        0.0000
     13  C         81.0990   24.2300   21.3700 C.3     1  UNL1        0.0000
     14  C         80.8320   24.4010   22.8160 C.2     1  UNL1        0.0000
     15  O         80.2660   23.5780   23.5120 O.2     1  UNL1        0.0000
     16  O         82.4890   24.2910   21.0110 O.3     1  UNL1        0.0000
     17  C         81.6240   26.0480   19.4720 C.3     1  UNL1        0.0000
     18  C         83.7310   28.5350   17.2080 C.3     1  UNL1        0.0000
     19  C         85.1750   28.2550   17.6230 C.3     1  UNL1        0.0000
     20  H         85.4620   27.5870   19.5810 H       1  UNL1        0.0000
     21  H         84.2740   25.4640   19.4370 H       1  UNL1        0.0000
     22  H         82.9260   27.4950   20.0810 H       1  UNL1        0.0000
     23  H         83.8590   29.3560   19.8540 H       1  UNL1        0.0000
     24  H         81.7800   30.7990   20.6740 H       1  UNL1        0.0000
     25  H         81.8430   29.4060   22.8110 H       1  UNL1        0.0000
     26  H         83.3540   30.2580   22.1830 H       1  UNL1        0.0000
     27  H         83.8200   26.2820   22.7990 H       1  UNL1        0.0000
     28  H         81.1300   27.2470   21.9160 H       1  UNL1        0.0000
     29  H         81.7360   25.2750   18.7400 H       1  UNL1        0.0000
     30  H         83.4360   27.7590   16.5340 H       1  UNL1        0.0000
     31  H         85.7330   28.0080   16.7430 H       1  UNL1        0.0000
     32  H         85.5260   29.1400   18.1110 H       1  UNL1        0.0000
     33  C         81.3050   28.6460   17.6720 C.3     1  UNL1        0.0000
     34  H         80.7450   29.4020   18.1820 H       1  UNL1        0.0000
     35  H         80.7540   27.7290   17.6770 H       1  UNL1        0.0000
     36  H         81.4780   28.9510   16.6610 H       1  UNL1        0.0000
     37  C         80.2630   23.3670   20.4950 C.3     1  UNL1        0.0000
     38  H         80.8970   22.7750   19.8670 H       1  UNL1        0.0000
     39  H         79.6330   23.9810   19.8860 H       1  UNL1        0.0000
     40  H         79.6580   22.7250   21.1000 H       1  UNL1        0.0000
     41  C         83.8870   25.3750   17.4030 C.3     1  UNL1        0.0000
     42  H         82.8550   25.1030   17.3200 H       1  UNL1        0.0000
     43  H         84.4850   24.4890   17.4490 H       1  UNL1        0.0000
     44  H         84.1730   25.9550   16.5510 H       1  UNL1        0.0000
     45  C         84.9800   28.4750   22.4360 C.2     1  UNL1        0.0000
     46  N         85.6290   28.1810   23.5120 N.2     1  UNL1        0.0000
     47  H         85.4850   28.8750   21.6310 H       1  UNL1        0.0000
     48  O         86.9840   28.5250   23.3750 O.2     1  UNL1        0.0000
     49  C         87.7870   27.3380   23.5120 C.3     1  UNL1        0.0000
     50  H         87.1620   26.4800   23.3840 H       1  UNL1        0.0000
     51  H         88.2300   27.3440   24.4860 H       1  UNL1        0.0000
     52  C         88.8650   27.2980   22.5130 C.1     1  UNL1        0.0000
     53  C         89.7180   27.2720   21.6630 C.1     1  UNL1        0.0000
     54  H         90.4210   27.2520   20.9620 H       1  UNL1        0.0000
     55  O         83.6930   29.8350   16.5640 O.3     1  UNL1        0.0000
     56  C         84.8740   30.3820   16.1670 C.2     1  UNL1        0.0000
     57  O         85.4890   31.2540   16.7650 O.2     1  UNL1        0.0000
     58  C         85.3100   29.7960   14.8570 C.3     1  UNL1        0.0000
     59  H         84.4550   29.6480   14.2310 H       1  UNL1        0.0000
     60  H         85.7930   28.8570   15.0300 H       1  UNL1        0.0000
     61  H         85.9930   30.4650   14.3770 H       1  UNL1        0.0000
     62  O         80.3050   26.5980   19.3240 O.3     1  UNL1        0.0000
     63  C         79.4780   25.9860   18.4180 C.2     1  UNL1        0.0000
     64  O         79.3040   24.7810   18.3230 O.2     1  UNL1        0.0000
     65  C         78.7570   26.9930   17.5720 C.3     1  UNL1        0.0000
     66  H         78.9400   27.9760   17.9540 H       1  UNL1        0.0000
     67  H         77.7080   26.7910   17.5940 H       1  UNL1        0.0000
     68  H         79.1120   26.9310   16.5640 H       1  UNL1        0.0000
     69  O         80.7510   28.9960   20.6630 O.3     1  UNL1        0.0000
     70  C         79.8080   29.2980   21.6090 C.2     1  UNL1        0.0000
     71  O         79.2850   28.4850   22.3600 O.2     1  UNL1        0.0000
     72  C         79.4210   30.7580   21.5710 C.3     1  UNL1        0.0000
     73  H         78.4600   30.8440   21.1090 H       1  UNL1        0.0000
     74  H         80.1760   31.2750   21.0180 H       1  UNL1        0.0000
     75  C         79.3540   31.3910   22.9590 C.3     1  UNL1        0.0000
     76  H         79.6330   30.6530   23.6820 H       1  UNL1        0.0000
     77  H         78.3500   31.7360   23.0980 H       1  UNL1        0.0000
     78  C         80.2670   32.5960   23.1230 C.3     1  UNL1        0.0000
     79  H         80.4480   32.7670   24.1630 H       1  UNL1        0.0000
     80  H         79.7990   33.4590   22.6950 H       1  UNL1        0.0000
     81  H         81.1950   32.4100   22.6250 H       1  UNL1        0.0000
     82  O         82.8210   30.9010   18.7410 O.3     1  UNL1        0.0000
     83  C         81.7400   31.6790   19.0360 C.2     1  UNL1        0.0000
     84  O         80.6010   31.4690   18.6560 O.2     1  UNL1        0.0000
     85  C         82.1320   32.8620   19.8640 C.3     1  UNL1        0.0000
     86  H         82.1920   33.7290   19.2410 H       1  UNL1        0.0000
     87  H         83.0850   32.6810   20.3160 H       1  UNL1        0.0000
     88  H         81.3990   33.0210   20.6270 H       1  UNL1        0.0000
     89  O         86.5250   26.3220   18.3550 O.3     1  UNL1        0.0000
     90  O         87.7960   27.7420   17.0680 O.2     1  UNL1        0.0000
     91  C         87.2480   26.6610   17.2440 C.2     1  UNL1        0.0000
     92  C         87.2300   25.5420   16.2220 C.3     1  UNL1        0.0000
     93  H         86.2160   25.2460   16.0470 H       1  UNL1        0.0000
     94  H         87.8010   24.7230   16.6060 H       1  UNL1        0.0000
     95  C         87.8550   25.9940   14.8980 C.3     1  UNL1        0.0000
     96  H         88.5520   26.7820   15.0940 H       1  UNL1        0.0000
     97  H         87.0680   26.3290   14.2550 H       1  UNL1        0.0000
     98  N         88.5560   24.8960   14.2270 N.4     1  UNL1        0.0000
     99  C         89.5430   25.3280   13.2420 C.3     1  UNL1        0.0000
    100  C         89.9310   24.1480   12.3410 C.3     1  UNL1        0.0000
    101  C         89.7510   22.7870   13.0180 C.3     1  UNL1        0.0000
    102  C         90.0240   22.8850   14.5130 C.3     1  UNL1        0.0000
    103  C         89.1460   23.9510   15.1870 C.3     1  UNL1        0.0000
    104  H         87.8320   24.4060   13.7010 H       1  UNL1        0.0000
    105  H         90.4130   25.6920   13.7460 H       1  UNL1        0.0000
    106  H         89.1220   26.1070   12.6410 H       1  UNL1        0.0000
    107  H         90.9580   24.2560   12.0630 H       1  UNL1        0.0000
    108  H         89.2800   24.1680   11.4910 H       1  UNL1        0.0000
    109  H         90.4320   22.0860   12.5820 H       1  UNL1        0.0000
    110  H         88.7410   22.4640   12.8760 H       1  UNL1        0.0000
    111  H         91.0520   23.1410   14.6610 H       1  UNL1        0.0000
    112  H         89.7940   21.9380   14.9550 H       1  UNL1        0.0000
    113  H         88.3530   23.4590   15.7120 H       1  UNL1        0.0000
    114  H         89.7720   24.5130   15.8480 H       1  UNL1        0.0000
@<TRIPOS>BOND
     1     1    19    1
     2     1    89    1
     3     1     2    1
     4     1    20    1
     5     2    41    1
     6     2     3    1
     7     2    21    1
     8     3     4    1
     9     3    17    1
    10     3    22    1
    11     4    18    1
    12     4    33    1
    13     4     5    1
    14     5    82    1
    15     5    23    1
    16     5     6    1
    17     6    69    1
    18     6    24    1
    19     6     7    1
    20     7    26    1
    21     7     8    1
    22     7    25    1
    23     8    45    1
    24     8     9    2
    25     9    10    1
    26     9    27    1
    27    10    12    1
    28    10    28    1
    29    10    11    1
    30    11    14    1
    31    12    17    1
    32    12    16    1
    33    12    13    1
    34    13    37    1
    35    13    16    1
    36    13    14    1
    37    14    15    2
    38    17    29    1
    39    17    62    1
    40    18    30    1
    41    18    55    1
    42    18    19    1
    43    19    31    1
    44    19    32    1
    45    33    36    1
    46    33    35    1
    47    33    34    1
    48    37    38    1
    49    37    39    1
    50    37    40    1
    51    41    44    1
    52    41    42    1
    53    41    43    1
    54    45    47    1
    55    45    46    2
    56    46    48    1
    57    48    49    1
    58    49    52    1
    59    49    50    1
    60    49    51    1
    61    52    53    3
    62    53    54    1
    63    55    56    1
    64    56    58    1
    65    56    57    2
    66    58    59    1
    67    58    61    1
    68    58    60    1
    69    62    63    1
    70    63    65    1
    71    63    64    2
    72    65    68    1
    73    65    67    1
    74    65    66    1
    75    69    70    1
    76    70    72    1
    77    70    71    2
    78    72    74    1
    79    72    73    1
    80    72    75    1
    81    75    77    1
    82    75    78    1
    83    75    76    1
    84    78    81    1
    85    78    80    1
    86    78    79    1
    87    82    83    1
    88    83    84    2
    89    83    85    1
    90    85    86    1
    91    85    87    1
    92    85    88    1
    93    89    91    1
    94    90    91    2
    95    91    92    1
    96    92    95    1
    97    92    93    1
    98    92    94    1
    99    95    98    1
   100    95    97    1
   101    95    96    1
   102    98    99    1
   103    98   104    1
   104    98   103    1
   105    99   100    1
   106    99   106    1
   107    99   105    1
   108   100   108    1
   109   100   107    1
   110   100   101    1
   111   101   109    1
   112   101   110    1
   113   101   102    1
   114   102   111    1
   115   102   112    1
   116   102   103    1
   117   103   113    1
   118   103   114    1
