@<TRIPOS>MOLECULE
UNL
 44 47 0 0 0
SMALL
GASTEIGER

@<TRIPOS>ATOM
      1  C         88.8990   25.4470   13.7990 C.ar    1  UNL1        0.0000
      2  C         88.7560   24.5870   14.8920 C.ar    1  UNL1        0.0000
      3  C         89.4320   23.3580   14.9290 C.ar    1  UNL1        0.0000
      4  C         90.2840   22.9470   13.8940 C.ar    1  UNL1        0.0000
      5  C         90.4230   23.8310   12.8140 C.ar    1  UNL1        0.0000
      6  C         89.7530   25.0610   12.7630 C.ar    1  UNL1        0.0000
      7  H         88.1470   24.8590   15.6790 H       1  UNL1        0.0000
      8  H         89.2980   22.7380   15.7420 H       1  UNL1        0.0000
      9  H         91.0400   23.5670   12.0280 H       1  UNL1        0.0000
     10  H         89.8910   25.6870   11.9550 H       1  UNL1        0.0000
     11  N         90.9640   21.7500   13.9380 N.pl3   1  UNL1        0.0000
     12  C         92.4120   21.6340   14.1720 C.3     1  UNL1        0.0000
     13  C         93.0610   20.8130   13.0470 C.3     1  UNL1        0.0000
     14  O         92.4230   19.5340   12.8850 O.3     1  UNL1        0.0000
     15  C         91.0300   19.7090   12.5810 C.3     1  UNL1        0.0000
     16  C         90.2930   20.4620   13.7010 C.3     1  UNL1        0.0000
     17  H         92.5820   21.1480   15.1100 H       1  UNL1        0.0000
     18  H         92.8450   22.6130   14.1870 H       1  UNL1        0.0000
     19  H         94.0930   20.6580   13.2820 H       1  UNL1        0.0000
     20  H         92.9540   21.3570   12.1320 H       1  UNL1        0.0000
     21  H         90.5790   18.7460   12.4550 H       1  UNL1        0.0000
     22  H         90.9540   20.2880   11.6840 H       1  UNL1        0.0000
     23  H         89.2790   20.6350   13.4100 H       1  UNL1        0.0000
     24  H         90.3080   19.8770   14.5980 H       1  UNL1        0.0000
     25  C         88.1740   26.7660   13.7410 C.3     1  UNL1        0.0000
     26  H         88.8910   27.5570   13.6690 H       1  UNL1        0.0000
     27  H         87.5310   26.7660   12.8850 H       1  UNL1        0.0000
     28  O         85.9690   28.5320   14.0060 O.2     1  UNL1        0.0000
     29  C         86.3270   27.8610   14.9650 C.2     1  UNL1        0.0000
     30  N         87.3710   26.9610   14.9240 N.am    1  UNL1        0.0000
     31  H         87.5740   26.4340   15.7300 H       1  UNL1        0.0000
     32  C         85.6130   27.9920   16.2690 C.ar    1  UNL1        0.0000
     33  C         85.9840   27.2450   17.3910 C.ar    1  UNL1        0.0000
     34  C         85.3590   27.4560   18.6270 C.ar    1  UNL1        0.0000
     35  C         84.3720   28.4530   18.7550 C.ar    1  UNL1        0.0000
     36  N         83.7350   28.8140   19.9290 N.ar    1  UNL1        0.0000
     37  C         82.9240   29.8070   19.6720 C.ar    1  UNL1        0.0000
     38 CL         82.0210   30.5920   20.9020 Cl      1  UNL1        0.0000
     39  S         82.7910   30.3280   18.0640 S.2     1  UNL1        0.0000
     40  C         84.0010   29.1810   17.6180 C.ar    1  UNL1        0.0000
     41  C         84.5950   28.9570   16.3640 C.ar    1  UNL1        0.0000
     42  H         86.7260   26.5320   17.3080 H       1  UNL1        0.0000
     43  H         85.6210   26.8810   19.4430 H       1  UNL1        0.0000
     44  H         84.2920   29.4890   15.5340 H       1  UNL1        0.0000
@<TRIPOS>BOND
     1     1     6   ar
     2     1    25    1
     3     1     2   ar
     4     2     3   ar
     5     2     7    1
     6     3     4   ar
     7     3     8    1
     8     4     5   ar
     9     4    11    1
    10     5     9    1
    11     5     6   ar
    12     6    10    1
    13    11    16    1
    14    11    12    1
    15    12    13    1
    16    12    18    1
    17    12    17    1
    18    13    20    1
    19    13    14    1
    20    13    19    1
    21    14    15    1
    22    15    22    1
    23    15    21    1
    24    15    16    1
    25    16    23    1
    26    16    24    1
    27    25    27    1
    28    25    26    1
    29    25    30    1
    30    28    29    2
    31    29    30   am
    32    29    32    1
    33    30    31    1
    34    32    41   ar
    35    32    33   ar
    36    33    42    1
    37    33    34   ar
    38    34    35   ar
    39    34    43    1
    40    35    40   ar
    41    35    36   ar
    42    36    37   ar
    43    37    39   ar
    44    37    38    1
    45    39    40   ar
    46    40    41   ar
    47    41    44    1
