@<TRIPOS>MOLECULE
UNL
 36 37 0 0 0
SMALL
GASTEIGER

@<TRIPOS>ATOM
      1  C         84.2730   19.8120    9.1430 C.ar    1  UNL1        0.0000
      2  C         84.7170   19.0960   10.2600 C.ar    1  UNL1        0.0000
      3  C         85.9970   19.3180   10.7930 C.ar    1  UNL1        0.0000
      4  C         86.8640   20.2730   10.2500 C.ar    1  UNL1        0.0000
      5  C         86.3950   20.9920    9.1400 C.ar    1  UNL1        0.0000
      6  C         85.1260   20.7720    8.5920 C.ar    1  UNL1        0.0000
      7  H         84.0960   18.3980   10.6970 H       1  UNL1        0.0000
      8  H         86.3070   18.7620   11.6060 H       1  UNL1        0.0000
      9  H         87.0070   21.7050    8.7120 H       1  UNL1        0.0000
     10  H         84.8160   21.3230    7.7760 H       1  UNL1        0.0000
     11  N         88.1270   20.5090   10.7510 N.pl3   1  UNL1        0.0000
     12  C         88.6930   19.7880   11.9010 C.3     1  UNL1        0.0000
     13  C         88.9600   20.7460   13.0700 C.3     1  UNL1        0.0000
     14  O         89.7550   21.8750   12.6660 O.3     1  UNL1        0.0000
     15  C         89.0830   22.6040   11.6260 C.3     1  UNL1        0.0000
     16  C         88.8530   21.7350   10.3800 C.3     1  UNL1        0.0000
     17  H         89.6140   19.3280   11.6070 H       1  UNL1        0.0000
     18  H         87.9910   19.0460   12.2190 H       1  UNL1        0.0000
     19  H         89.4790   20.2160   13.8410 H       1  UNL1        0.0000
     20  H         88.0190   21.1110   13.4220 H       1  UNL1        0.0000
     21  H         89.6800   23.4500   11.3550 H       1  UNL1        0.0000
     22  H         88.1280   22.9130   11.9990 H       1  UNL1        0.0000
     23  H         88.2780   22.2850    9.6650 H       1  UNL1        0.0000
     24  H         89.7980   21.4690    9.9550 H       1  UNL1        0.0000
     25  C         82.9080   19.5680    8.5540 C.3     1  UNL1        0.0000
     26  H         82.9920   19.5210    7.4880 H       1  UNL1        0.0000
     27  H         82.5330   18.6470    8.9490 H       1  UNL1        0.0000
     28  O         80.8410   19.3600   10.4500 O.2     1  UNL1        0.0000
     29  C         81.0040   20.4110    9.8450 C.2     1  UNL1        0.0000
     30  N         81.9810   20.6190    8.9040 N.am    1  UNL1        0.0000
     31  H         82.0520   21.4960    8.4610 H       1  UNL1        0.0000
     32  C         80.1470   21.6050   10.0580 C.2     1  UNL1        0.0000
     33  C         80.6540   22.8440   10.0650 C.2     1  UNL1        0.0000
     34  H         79.1320   21.4770   10.2040 H       1  UNL1        0.0000
     35  H         81.6650   22.9880    9.9210 H       1  UNL1        0.0000
     36  H         80.0340   23.6550   10.2160 H       1  UNL1        0.0000
@<TRIPOS>BOND
     1     1    25    1
     2     1     6   ar
     3     1     2   ar
     4     2     7    1
     5     2     3   ar
     6     3     4   ar
     7     3     8    1
     8     4     5   ar
     9     4    11    1
    10     5     6   ar
    11     5     9    1
    12     6    10    1
    13    11    16    1
    14    11    12    1
    15    12    17    1
    16    12    18    1
    17    12    13    1
    18    13    14    1
    19    13    20    1
    20    13    19    1
    21    14    15    1
    22    15    16    1
    23    15    21    1
    24    15    22    1
    25    16    23    1
    26    16    24    1
    27    25    26    1
    28    25    30    1
    29    25    27    1
    30    28    29    2
    31    29    30   am
    32    29    32    1
    33    30    31    1
    34    32    33    2
    35    32    34    1
    36    33    35    1
    37    33    36    1
