@<TRIPOS>MOLECULE
UNL
 48 49 0 0 0
SMALL
GASTEIGER

@<TRIPOS>ATOM
      1  C         88.4580   25.9320   13.7690 C.3     1  UNL1        0.0000
      2  H         89.1210   26.7730   13.7460 H       1  UNL1        0.0000
      3  H         87.7400   25.9790   12.9770 H       1  UNL1        0.0000
      4  C         89.2650   24.6740   13.5840 C.ar    1  UNL1        0.0000
      5  C         90.0480   24.4770   12.4420 C.ar    1  UNL1        0.0000
      6  C         90.8350   23.3220   12.3020 C.ar    1  UNL1        0.0000
      7  C         90.8500   22.3160   13.2760 C.ar    1  UNL1        0.0000
      8  C         90.0380   22.5210   14.4020 C.ar    1  UNL1        0.0000
      9  C         89.2570   23.6740   14.5590 C.ar    1  UNL1        0.0000
     10  H         90.0480   25.1880   11.6940 H       1  UNL1        0.0000
     11  H         91.4180   23.2110   11.4580 H       1  UNL1        0.0000
     12  H         90.0140   21.7980   15.1380 H       1  UNL1        0.0000
     13  H         88.6730   23.7850   15.4020 H       1  UNL1        0.0000
     14  N         91.6250   21.1820   13.1630 N.pl3   1  UNL1        0.0000
     15  C         91.1260   19.8230   13.4190 C.3     1  UNL1        0.0000
     16  C         91.8960   19.1740   14.5800 C.3     1  UNL1        0.0000
     17  O         93.3180   19.2180   14.3660 O.3     1  UNL1        0.0000
     18  C         93.7570   20.5810   14.2320 C.3     1  UNL1        0.0000
     19  C         93.0880   21.2780   13.0350 C.3     1  UNL1        0.0000
     20  H         91.2530   19.2290   12.5380 H       1  UNL1        0.0000
     21  H         90.0910   19.8800   13.6830 H       1  UNL1        0.0000
     22  H         91.5910   18.1520   14.6700 H       1  UNL1        0.0000
     23  H         91.6770   19.7210   15.4720 H       1  UNL1        0.0000
     24  H         94.8180   20.5920   14.0910 H       1  UNL1        0.0000
     25  H         93.4830   21.1090   15.1210 H       1  UNL1        0.0000
     26  H         93.3770   22.3080   13.0160 H       1  UNL1        0.0000
     27  H         93.3970   20.8020   12.1280 H       1  UNL1        0.0000
     28  O         87.8340   28.2270   15.2390 O.2     1  UNL1        0.0000
     29  C         87.4890   27.1340   15.6630 C.2     1  UNL1        0.0000
     30  N         87.7370   25.9440   15.0190 N.am    1  UNL1        0.0000
     31  H         87.4220   25.0980   15.4120 H       1  UNL1        0.0000
     32  C         86.7480   26.9600   16.9410 C.2     1  UNL1        0.0000
     33  C         85.9290   27.9170   17.4110 C.2     1  UNL1        0.0000
     34  H         86.8660   26.0870   17.4790 H       1  UNL1        0.0000
     35  H         85.8460   28.7950   16.8760 H       1  UNL1        0.0000
     36  C         85.1260   27.7750   18.6740 C.3     1  UNL1        0.0000
     37  H         85.6780   28.2140   19.4780 H       1  UNL1        0.0000
     38  H         84.9550   26.7300   18.8270 H       1  UNL1        0.0000
     39  N         83.8100   28.4290   18.5980 N.4     1  UNL1        0.0000
     40  H         83.1140   27.6910   18.4890 H       1  UNL1        0.0000
     41  C         83.4900   29.1740   19.8180 C.3     1  UNL1        0.0000
     42  H         83.4350   28.4970   20.6450 H       1  UNL1        0.0000
     43  H         82.5490   29.6680   19.6980 H       1  UNL1        0.0000
     44  H         84.2540   29.9010   20.0020 H       1  UNL1        0.0000
     45  C         83.7690   29.3390   17.4490 C.3     1  UNL1        0.0000
     46  H         83.0490   30.1080   17.6290 H       1  UNL1        0.0000
     47  H         83.4960   28.7930   16.5710 H       1  UNL1        0.0000
     48  H         84.7350   29.7800   17.3080 H       1  UNL1        0.0000
@<TRIPOS>BOND
     1     1     3    1
     2     1     4    1
     3     1     2    1
     4     1    30    1
     5     4     5   ar
     6     4     9   ar
     7     5    10    1
     8     5     6   ar
     9     6    11    1
    10     6     7   ar
    11     7    14    1
    12     7     8   ar
    13     8     9   ar
    14     8    12    1
    15     9    13    1
    16    14    19    1
    17    14    15    1
    18    15    20    1
    19    15    21    1
    20    15    16    1
    21    16    17    1
    22    16    22    1
    23    16    23    1
    24    17    18    1
    25    18    19    1
    26    18    24    1
    27    18    25    1
    28    19    27    1
    29    19    26    1
    30    28    29    2
    31    29    30   am
    32    29    32    1
    33    30    31    1
    34    32    33    2
    35    32    34    1
    36    33    35    1
    37    33    36    1
    38    36    39    1
    39    36    38    1
    40    36    37    1
    41    39    45    1
    42    39    40    1
    43    39    41    1
    44    41    43    1
    45    41    44    1
    46    41    42    1
    47    45    47    1
    48    45    48    1
    49    45    46    1
