@<TRIPOS>MOLECULE
UNL
 48 49 0 0 0
SMALL
GASTEIGER

@<TRIPOS>ATOM
      1  C         88.4610   25.9690   13.7500 C.3     1  UNL1        0.0000
      2  H         89.1140   26.8110   13.6520 H       1  UNL1        0.0000
      3  H         87.7040   25.9810   12.9940 H       1  UNL1        0.0000
      4  C         89.2660   24.7050   13.5890 C.ar    1  UNL1        0.0000
      5  C         90.0320   24.4890   12.4410 C.ar    1  UNL1        0.0000
      6  C         90.8100   23.3300   12.3080 C.ar    1  UNL1        0.0000
      7  C         90.8410   22.3390   13.2970 C.ar    1  UNL1        0.0000
      8  C         90.0360   22.5550   14.4250 C.ar    1  UNL1        0.0000
      9  C         89.2610   23.7150   14.5740 C.ar    1  UNL1        0.0000
     10  H         90.0250   25.1880   11.6830 H       1  UNL1        0.0000
     11  H         91.3780   23.2050   11.4560 H       1  UNL1        0.0000
     12  H         90.0140   21.8390   15.1700 H       1  UNL1        0.0000
     13  H         88.6810   23.8390   15.4190 H       1  UNL1        0.0000
     14  N         91.6200   21.2090   13.1720 N.pl3   1  UNL1        0.0000
     15  C         91.0880   19.8430   13.2950 C.3     1  UNL1        0.0000
     16  C         91.8550   19.0790   14.3840 C.3     1  UNL1        0.0000
     17  O         93.2720   19.0950   14.1410 O.3     1  UNL1        0.0000
     18  C         93.7560   20.4490   14.1130 C.3     1  UNL1        0.0000
     19  C         93.0790   21.2770   13.0070 C.3     1  UNL1        0.0000
     20  H         91.1990   19.3340   12.3600 H       1  UNL1        0.0000
     21  H         90.0530   19.8930   13.5620 H       1  UNL1        0.0000
     22  H         91.5160   18.0640   14.4000 H       1  UNL1        0.0000
     23  H         91.6690   19.5560   15.3230 H       1  UNL1        0.0000
     24  H         94.8110   20.4350   13.9380 H       1  UNL1        0.0000
     25  H         93.5260   20.9020   15.0540 H       1  UNL1        0.0000
     26  H         93.3990   22.2960   13.0760 H       1  UNL1        0.0000
     27  H         93.3500   20.8850   12.0470 H       1  UNL1        0.0000
     28  O         85.8160   26.7560   14.1950 O.2     1  UNL1        0.0000
     29  C         86.5080   26.4470   15.1580 C.2     1  UNL1        0.0000
     30  N         87.8110   26.0300   15.0370 N.am    1  UNL1        0.0000
     31  H         88.3110   25.7670   15.8430 H       1  UNL1        0.0000
     32  C         85.9500   26.4450   16.5550 C.2     1  UNL1        0.0000
     33  C         85.6710   25.2880   17.1900 C.2     1  UNL1        0.0000
     34  H         85.7750   24.3890   16.6930 H       1  UNL1        0.0000
     35  H         85.3520   25.3000   18.1710 H       1  UNL1        0.0000
     36  C         85.8220   27.8150   17.2110 C.3     1  UNL1        0.0000
     37  H         86.8080   28.2050   17.3550 H       1  UNL1        0.0000
     38  H         85.2840   27.6540   18.1220 H       1  UNL1        0.0000
     39  N         85.0390   28.8200   16.4480 N.4     1  UNL1        0.0000
     40  H         84.6580   28.3480   15.6280 H       1  UNL1        0.0000
     41  C         83.9300   29.3580   17.2450 C.3     1  UNL1        0.0000
     42  H         83.0110   28.9150   16.9240 H       1  UNL1        0.0000
     43  H         83.8800   30.4190   17.1160 H       1  UNL1        0.0000
     44  H         84.0920   29.1310   18.2790 H       1  UNL1        0.0000
     45  C         85.9040   29.9320   16.0360 C.3     1  UNL1        0.0000
     46  H         85.8110   30.0840   14.9810 H       1  UNL1        0.0000
     47  H         86.9210   29.7010   16.2750 H       1  UNL1        0.0000
     48  H         85.6100   30.8230   16.5500 H       1  UNL1        0.0000
@<TRIPOS>BOND
     1     1     3    1
     2     1     4    1
     3     1     2    1
     4     1    30    1
     5     4     5   ar
     6     4     9   ar
     7     5    10    1
     8     5     6   ar
     9     6    11    1
    10     6     7   ar
    11     7    14    1
    12     7     8   ar
    13     8     9   ar
    14     8    12    1
    15     9    13    1
    16    14    19    1
    17    14    15    1
    18    15    20    1
    19    15    21    1
    20    15    16    1
    21    16    17    1
    22    16    22    1
    23    16    23    1
    24    17    18    1
    25    18    19    1
    26    18    24    1
    27    18    25    1
    28    19    27    1
    29    19    26    1
    30    28    29    2
    31    29    30   am
    32    29    32    1
    33    30    31    1
    34    32    33    2
    35    32    36    1
    36    33    34    1
    37    33    35    1
    38    36    39    1
    39    36    37    1
    40    36    38    1
    41    39    40    1
    42    39    45    1
    43    39    41    1
    44    41    42    1
    45    41    43    1
    46    41    44    1
    47    45    46    1
    48    45    47    1
    49    45    48    1
