@<TRIPOS>MOLECULE
UNL
 37 38 0 0 0
SMALL
GASTEIGER

@<TRIPOS>ATOM
      1  C         85.0590   29.7630   16.6770 C.ar    1  UNL1        0.0000
      2  C         84.0640   30.7420   16.6720 C.ar    1  UNL1        0.0000
      3  C         82.9170   30.5920   17.4600 C.ar    1  UNL1        0.0000
      4  C         82.7180   29.4760   18.2870 C.ar    1  UNL1        0.0000
      5  C         83.7510   28.5290   18.3170 C.ar    1  UNL1        0.0000
      6  C         84.9040   28.6660   17.5280 C.ar    1  UNL1        0.0000
      7  H         84.1750   31.5820   16.0820 H       1  UNL1        0.0000
      8  H         82.1930   31.3260   17.4320 H       1  UNL1        0.0000
      9  H         83.6620   27.7090   18.9370 H       1  UNL1        0.0000
     10  H         85.6430   27.9470   17.5750 H       1  UNL1        0.0000
     11  N         81.5670   29.3310   19.0260 N.pl3   1  UNL1        0.0000
     12  C         81.3210   28.1640   19.8880 C.3     1  UNL1        0.0000
     13  C         79.9630   27.5510   19.5250 C.3     1  UNL1        0.0000
     14  O         78.9080   28.5210   19.6540 O.3     1  UNL1        0.0000
     15  C         79.1470   29.6400   18.7800 C.3     1  UNL1        0.0000
     16  C         80.4930   30.3330   19.0690 C.3     1  UNL1        0.0000
     17  H         81.3140   28.4700   20.9120 H       1  UNL1        0.0000
     18  H         82.0940   27.4390   19.7410 H       1  UNL1        0.0000
     19  H         79.7640   26.7290   20.1800 H       1  UNL1        0.0000
     20  H         79.9990   27.2190   18.5080 H       1  UNL1        0.0000
     21  H         78.3580   30.3520   18.9080 H       1  UNL1        0.0000
     22  H         79.1790   29.2700   17.7760 H       1  UNL1        0.0000
     23  H         80.6760   31.0860   18.3300 H       1  UNL1        0.0000
     24  H         80.4640   30.7900   20.0360 H       1  UNL1        0.0000
     25  C         86.2680   29.8980   15.7950 C.3     1  UNL1        0.0000
     26  H         85.9550   30.2230   14.8250 H       1  UNL1        0.0000
     27  H         86.9300   30.6100   16.2430 H       1  UNL1        0.0000
     28  O         85.9870   28.0800   13.6650 O.2     1  UNL1        0.0000
     29  C         86.7610   27.8390   14.5810 C.2     1  UNL1        0.0000
     30  N         86.9740   28.6530   15.6620 N.am    1  UNL1        0.0000
     31  H         87.6190   28.3820   16.3560 H       1  UNL1        0.0000
     32  C         87.5330   26.6180   14.5690 C.1     1  UNL1        0.0000
     33  C         88.1820   25.6080   14.5540 C.1     1  UNL1        0.0000
     34  C         88.9680   24.3740   14.5300 C.3     1  UNL1        0.0000
     35  H         89.5620   24.3110   15.4180 H       1  UNL1        0.0000
     36  H         89.6080   24.3750   13.6720 H       1  UNL1        0.0000
     37  H         88.3090   23.5320   14.4810 H       1  UNL1        0.0000
@<TRIPOS>BOND
     1     1    25    1
     2     1     2   ar
     3     1     6   ar
     4     2     7    1
     5     2     3   ar
     6     3     8    1
     7     3     4   ar
     8     4     5   ar
     9     4    11    1
    10     5     6   ar
    11     5     9    1
    12     6    10    1
    13    11    16    1
    14    11    12    1
    15    12    13    1
    16    12    18    1
    17    12    17    1
    18    13    20    1
    19    13    14    1
    20    13    19    1
    21    14    15    1
    22    15    22    1
    23    15    21    1
    24    15    16    1
    25    16    23    1
    26    16    24    1
    27    25    26    1
    28    25    30    1
    29    25    27    1
    30    28    29    2
    31    29    32    1
    32    29    30   am
    33    30    31    1
    34    32    33    3
    35    33    34    1
    36    34    36    1
    37    34    37    1
    38    34    35    1
