@<TRIPOS>MOLECULE
UNL
 35 36 0 0 0
SMALL
GASTEIGER

@<TRIPOS>ATOM
      1  C         86.8350   20.4110   10.3820 C.ar    1  UNL1        0.0000
      2  C         87.7360   21.4180   10.0270 C.ar    1  UNL1        0.0000
      3  C         88.9220   21.6070   10.7550 C.ar    1  UNL1        0.0000
      4  C         89.2610   20.7910   11.8420 C.ar    1  UNL1        0.0000
      5  C         88.3570   19.7660   12.1620 C.ar    1  UNL1        0.0000
      6  C         87.1670   19.5730   11.4480 C.ar    1  UNL1        0.0000
      7  H         87.5280   22.0300    9.2220 H       1  UNL1        0.0000
      8  H         89.5610   22.3700   10.4830 H       1  UNL1        0.0000
      9  H         88.5750   19.1360   12.9490 H       1  UNL1        0.0000
     10  H         86.5310   18.8030   11.7110 H       1  UNL1        0.0000
     11  N         90.4130   20.9750   12.5730 N.pl3   1  UNL1        0.0000
     12  C         90.8450   20.0860   13.6610 C.3     1  UNL1        0.0000
     13  C         90.9800   20.8770   14.9720 C.3     1  UNL1        0.0000
     14  O         91.8410   22.0180   14.8160 O.3     1  UNL1        0.0000
     15  C         91.3240   22.8960   13.8020 C.3     1  UNL1        0.0000
     16  C         91.2270   22.1930   12.4370 C.3     1  UNL1        0.0000
     17  H         91.7900   19.6530   13.4110 H       1  UNL1        0.0000
     18  H         90.1130   19.3160   13.7940 H       1  UNL1        0.0000
     19  H         91.3880   20.2340   15.7240 H       1  UNL1        0.0000
     20  H         90.0090   21.2260   15.2520 H       1  UNL1        0.0000
     21  H         91.9740   23.7420   13.7110 H       1  UNL1        0.0000
     22  H         90.3400   23.1990   14.0920 H       1  UNL1        0.0000
     23  H         90.7700   22.8500   11.7280 H       1  UNL1        0.0000
     24  H         92.2070   21.9330   12.0980 H       1  UNL1        0.0000
     25  C         85.5360   20.2400    9.6480 C.3     1  UNL1        0.0000
     26  H         85.7410   20.1460    8.6020 H       1  UNL1        0.0000
     27  H         85.0550   19.3640   10.0340 H       1  UNL1        0.0000
     28  O         83.4540   20.2880   11.4720 O.2     1  UNL1        0.0000
     29  C         83.6290   21.2870   10.7750 C.2     1  UNL1        0.0000
     30  N         84.6420   21.3550    9.8460 N.am    1  UNL1        0.0000
     31  H         84.7570   22.1720    9.3110 H       1  UNL1        0.0000
     32  C         82.7230   22.4960   10.9180 C.3     1  UNL1        0.0000
     33 CL         81.5370   22.6440    9.6030 Cl      1  UNL1        0.0000
     34  H         83.3300   23.3770   10.9280 H       1  UNL1        0.0000
     35  H         82.1750   22.3750   11.8290 H       1  UNL1        0.0000
@<TRIPOS>BOND
     1     1    25    1
     2     1     2   ar
     3     1     6   ar
     4     2     7    1
     5     2     3   ar
     6     3     8    1
     7     3     4   ar
     8     4     5   ar
     9     4    11    1
    10     5     6   ar
    11     5     9    1
    12     6    10    1
    13    11    16    1
    14    11    12    1
    15    12    17    1
    16    12    18    1
    17    12    13    1
    18    13    14    1
    19    13    20    1
    20    13    19    1
    21    14    15    1
    22    15    16    1
    23    15    21    1
    24    15    22    1
    25    16    23    1
    26    16    24    1
    27    25    26    1
    28    25    30    1
    29    25    27    1
    30    28    29    2
    31    29    30   am
    32    29    32    1
    33    30    31    1
    34    32    33    1
    35    32    34    1
    36    32    35    1
