@<TRIPOS>MOLECULE
UNL
 45 47 0 0 0
SMALL
GASTEIGER

@<TRIPOS>ATOM
      1  C         88.7600   25.0700   14.2940 C.ar    1  UNL1        0.0000
      2  C         89.2160   25.0590   12.9740 C.ar    1  UNL1        0.0000
      3  C         89.8660   23.9390   12.4440 C.ar    1  UNL1        0.0000
      4  C         90.1170   22.7900   13.2050 C.ar    1  UNL1        0.0000
      5  C         89.6850   22.8220   14.5360 C.ar    1  UNL1        0.0000
      6  C         89.0200   23.9360   15.0750 C.ar    1  UNL1        0.0000
      7  H         89.0720   25.8900   12.3790 H       1  UNL1        0.0000
      8  H         90.1710   23.9600   11.4580 H       1  UNL1        0.0000
      9  H         89.8610   22.0030   15.1390 H       1  UNL1        0.0000
     10  H         88.7160   23.9190   16.0610 H       1  UNL1        0.0000
     11  N         90.8010   21.7250   12.6630 N.pl3   1  UNL1        0.0000
     12  C         90.2510   20.8580   11.6140 C.3     1  UNL1        0.0000
     13  C         90.6130   19.3960   11.9450 C.3     1  UNL1        0.0000
     14  O         92.0310   19.2150   12.1150 O.3     1  UNL1        0.0000
     15  C         92.5190   20.0570   13.1760 C.3     1  UNL1        0.0000
     16  C         92.2470   21.5390   12.8800 C.3     1  UNL1        0.0000
     17  H         90.6700   21.1270   10.6670 H       1  UNL1        0.0000
     18  H         89.1880   20.9690   11.5660 H       1  UNL1        0.0000
     19  H         90.2790   18.7680   11.1460 H       1  UNL1        0.0000
     20  H         90.1340   19.1380   12.8670 H       1  UNL1        0.0000
     21  H         93.5740   19.9100   13.2790 H       1  UNL1        0.0000
     22  H         92.0090   19.7930   14.0790 H       1  UNL1        0.0000
     23  H         92.5650   22.1350   13.7100 H       1  UNL1        0.0000
     24  H         92.7850   21.8380   12.0060 H       1  UNL1        0.0000
     25  C         88.1110   26.2880   14.9200 C.3     1  UNL1        0.0000
     26  H         88.7320   26.6260   15.7230 H       1  UNL1        0.0000
     27  H         88.0090   27.0210   14.1470 H       1  UNL1        0.0000
     28  N         86.7660   26.0300   15.4490 N.3     1  UNL1        0.0000
     29  H         86.5040   25.0850   15.1700 H       1  UNL1        0.0000
     30  O         86.0960   28.0980   14.1410 O.2     1  UNL1        0.0000
     31  S         85.5320   27.0560   14.9660 S.O2    1  UNL1        0.0000
     32  O         84.4600   26.2060   14.5030 O.2     1  UNL1        0.0000
     33  C         84.9840   27.7790   16.4920 C.ar    1  UNL1        0.0000
     34  C         84.0180   28.7850   16.4720 C.ar    1  UNL1        0.0000
     35  C         83.5100   29.2490   17.6930 C.ar    1  UNL1        0.0000
     36  C         83.9610   28.7480   18.9170 C.ar    1  UNL1        0.0000
     37 CL         83.3910   29.3070   20.4460 Cl      1  UNL1        0.0000
     38  C         84.9420   27.7480   18.9130 C.ar    1  UNL1        0.0000
     39  C         85.4500   27.2590   17.7040 C.ar    1  UNL1        0.0000
     40  H         83.6850   29.1790   15.5790 H       1  UNL1        0.0000
     41  H         85.2910   27.3710   19.8080 H       1  UNL1        0.0000
     42  H         86.1670   26.5160   17.7080 H       1  UNL1        0.0000
     43  N         82.4740   30.2560   17.6440 N.pl3   1  UNL1        0.0000
     44  O         81.3120   29.8680   17.8190 O.2     1  UNL1        0.0000
     45  O         82.8310   31.4320   17.4930 O.2     1  UNL1        0.0000
@<TRIPOS>BOND
     1     1     2   ar
     2     1    25    1
     3     1     6   ar
     4     2     7    1
     5     2     3   ar
     6     3     8    1
     7     3     4   ar
     8     4    11    1
     9     4     5   ar
    10     5     6   ar
    11     5     9    1
    12     6    10    1
    13    11    12    1
    14    11    16    1
    15    12    17    1
    16    12    18    1
    17    12    13    1
    18    13    19    1
    19    13    14    1
    20    13    20    1
    21    14    15    1
    22    15    16    1
    23    15    21    1
    24    15    22    1
    25    16    24    1
    26    16    23    1
    27    25    27    1
    28    25    28    1
    29    25    26    1
    30    28    31    1
    31    28    29    1
    32    30    31    2
    33    31    32    2
    34    31    33    1
    35    33    34   ar
    36    33    39   ar
    37    34    40    1
    38    34    35   ar
    39    35    43    1
    40    35    36   ar
    41    36    38   ar
    42    36    37    1
    43    38    39   ar
    44    38    41    1
    45    39    42    1
    46    43    45    2
    47    43    44    2
