@<TRIPOS>MOLECULE
UNL
 43 45 0 0 0
SMALL
GASTEIGER

@<TRIPOS>ATOM
      1  C         89.0170   24.8770   13.8400 C.ar    1  UNL1        0.0000
      2  C         89.6980   24.6760   12.6350 C.ar    1  UNL1        0.0000
      3  C         90.5100   23.5490   12.4440 C.ar    1  UNL1        0.0000
      4  C         90.6830   22.5830   13.4400 C.ar    1  UNL1        0.0000
      5  C         89.9910   22.7900   14.6400 C.ar    1  UNL1        0.0000
      6  C         89.1800   23.9150   14.8440 C.ar    1  UNL1        0.0000
      7  H         89.6010   25.3680   11.8750 H       1  UNL1        0.0000
      8  H         90.9940   23.4280   11.5410 H       1  UNL1        0.0000
      9  H         90.0800   22.0940   15.3970 H       1  UNL1        0.0000
     10  H         88.6950   24.0360   15.7480 H       1  UNL1        0.0000
     11  N         91.5130   21.4940   13.2780 N.pl3   1  UNL1        0.0000
     12  C         91.0640   20.1040   13.4530 C.3     1  UNL1        0.0000
     13  C         91.8140   19.4360   14.6130 C.3     1  UNL1        0.0000
     14  O         93.2390   19.5400   14.4510 O.3     1  UNL1        0.0000
     15  C         93.6320   20.9220   14.3930 C.3     1  UNL1        0.0000
     16  C         92.9740   21.6540   13.2100 C.3     1  UNL1        0.0000
     17  H         91.2520   19.5580   12.5520 H       1  UNL1        0.0000
     18  H         90.0170   20.1050   13.6740 H       1  UNL1        0.0000
     19  H         91.5430   18.4020   14.6530 H       1  UNL1        0.0000
     20  H         91.5430   19.9370   15.5200 H       1  UNL1        0.0000
     21  H         94.6950   20.9750   14.2870 H       1  UNL1        0.0000
     22  H         93.3120   21.3960   15.2990 H       1  UNL1        0.0000
     23  H         93.2200   22.6940   13.2550 H       1  UNL1        0.0000
     24  H         93.3340   21.2370   12.2920 H       1  UNL1        0.0000
     25  C         88.2050   26.1190   14.1370 C.3     1  UNL1        0.0000
     26  H         88.8800   26.9470   14.2120 H       1  UNL1        0.0000
     27  H         87.5010   26.2190   13.3380 H       1  UNL1        0.0000
     28  N         87.4220   26.0570   15.3720 N.3     1  UNL1        0.0000
     29  H         86.4430   25.9610   15.1040 H       1  UNL1        0.0000
     30  O         87.9270   26.8160   17.7190 O.2     1  UNL1        0.0000
     31  S         87.5200   27.3470   16.4380 S.O2    1  UNL1        0.0000
     32  O         88.2670   28.3950   15.7850 O.2     1  UNL1        0.0000
     33  C         85.8520   27.8520   16.6230 C.ar    1  UNL1        0.0000
     34  C         84.8920   26.8810   16.8940 C.ar    1  UNL1        0.0000
     35  F         85.2160   25.5800   16.9000 F       1  UNL1        0.0000
     36  C         83.5720   27.2490   17.1340 C.ar    1  UNL1        0.0000
     37  F         82.6540   26.3080   17.3940 F       1  UNL1        0.0000
     38  C         83.2070   28.5860   17.0990 C.ar    1  UNL1        0.0000
     39  F         81.9370   28.9420   17.3280 F       1  UNL1        0.0000
     40  C         84.1600   29.5540   16.8120 C.ar    1  UNL1        0.0000
     41  F         83.8070   30.8440   16.7620 F       1  UNL1        0.0000
     42  C         85.4850   29.1890   16.5790 C.ar    1  UNL1        0.0000
     43  F         86.3700   30.1550   16.3060 F       1  UNL1        0.0000
@<TRIPOS>BOND
     1     1     2   ar
     2     1    25    1
     3     1     6   ar
     4     2     7    1
     5     2     3   ar
     6     3     8    1
     7     3     4   ar
     8     4    11    1
     9     4     5   ar
    10     5     6   ar
    11     5     9    1
    12     6    10    1
    13    11    16    1
    14    11    12    1
    15    12    17    1
    16    12    18    1
    17    12    13    1
    18    13    14    1
    19    13    19    1
    20    13    20    1
    21    14    15    1
    22    15    16    1
    23    15    21    1
    24    15    22    1
    25    16    24    1
    26    16    23    1
    27    25    27    1
    28    25    26    1
    29    25    28    1
    30    28    29    1
    31    28    31    1
    32    30    31    2
    33    31    32    2
    34    31    33    1
    35    33    42   ar
    36    33    34   ar
    37    34    35    1
    38    34    36   ar
    39    36    38   ar
    40    36    37    1
    41    38    40   ar
    42    38    39    1
    43    40    42   ar
    44    40    41    1
    45    42    43    1
